 MASTER PROCESSOR NUMBER            0  OF THE GROUP OF            1
 EXECUTABLE FILE: /home/schwindt/github/hytelemac/friction/steady2d-zonal-ks.cas_2023-07-28-14h55min04s/A.EXE
 LISTING OF TELEMAC2D------------------------------------------------------------------------------

                TTTTT  EEEEE  L      EEEEE  M   M  AAAAA  CCCCC
                  T    E      L      E      MM MM  A   A  C
                  T    EEE    L      EEE    M M M  AAAAA  C
                  T    E      L      E      M   M  A   A  C
                  T    EEEEE  LLLLL  EEEEE  M   M  A   A  CCCCC

                        2D    VERSION V8P4   FORTRAN 2003

                        ~^~^~^~^~^~^~^~^~^~^~^^~^~^~^~^~^~
                          ~                            ~
                               \   '    o      '
                               /\ o       \  o
                             >=)'>    '   /\ '
                               \/   \   >=)'>        ~
                               /    /\    \/
                        ~         >=)'>   /     .
                                    \/                   )
                                    /                   (
                                          ~          )   )
                          }     ~              (    (   (
                         {                      )    )   )
                          }  }         .       (    (   (
                         {  {               /^^^^^^^^^^^^
                        ^^^^^^^^^\         /
                                  ^^^^^^^^^

 VALUES OF THE KEY-WORDS:

 GRAPHIC PRINTOUT PERIOD
 MOTINT( 11)=      1000

 LISTING PRINTOUT PERIOD
 MOTINT( 16)=       100

 NUMBER OF TIME STEPS
 MOTINT( 55)=     10000

 NON-NEWTONIAN MODEL
 MOTINT( 30)=         0

 TYPE OF ADVECTION
 MOTINT( 72)=         1

 TYPE OF ADVECTION
 MOTINT( 73)=         5

 TYPE OF ADVECTION
 MOTINT( 74)=         1

 TYPE OF ADVECTION
 MOTINT( 75)=         1

 NUMBER OF CULVERTS
 MOTINT(130)=         0

 TURBULENCE MODEL
 MOTINT(100)=         3

 LAW OF BOTTOM FRICTION
 MOTINT( 27)=         3

 MAXIMUM NUMBER OF ITERATIONS FOR DIFFUSION OF TRACERS
 MOTINT(115)=        60

 MAXIMUM NUMBER OF ITERATIONS FOR SOLVER
 MOTINT( 65)=       200

 SOLVER FOR DIFFUSION OF TRACERS
 MOTINT(111)=         1

 SOLVER FOR DIFFUSION OF TRACERS
 MOTINT(112)=         1

 FINITE VOLUME SCHEME FOR VELOCITY DIFFUSION
 MOTINT( 90)=         1

 MAXIMUM NUMBER OF ITERATIONS FOR K AND EPSILON
 MOTINT(107)=        50

 PRECONDITIONING
 MOTINT( 66)=         2

 INITIAL GUESS FOR H
 MOTINT( 70)=         1

 DISCRETIZATIONS IN SPACE
 MOTINT( 68)=        11

 DISCRETIZATIONS IN SPACE
 MOTINT( 69)=        11

 NUMBER OF CORRECTIONS OF DISTRIBUTIVE SCHEMES
 MOTINT( 87)=         1

 NUMBER OF SUB-STEPS OF DISTRIBUTIVE SCHEMES
 MOTINT( 88)=         1

 SOLVER
 MOTINT( 63)=         1

 BINGHAM OPTION
 MOTINT( 31)=         1

 NUMBER OF SUB-ITERATIONS FOR NON-LINEARITIES
 MOTINT( 85)=         1

 NUMBER OF FIRST TIME STEP FOR GRAPHIC PRINTOUTS
 MOTINT( 10)=         0

 NUMBER OF FIRST TIME STEP FOR LISTING PRINTOUTS
 MOTINT( 15)=         0

 PRECONDITIONING FOR DIFFUSION OF TRACERS
 MOTINT(114)=         2

 SOLVER FOR K-EPSILON MODEL
 MOTINT(101)=         1

 PRECONDITIONING FOR K-EPSILON MODEL
 MOTINT(103)=         2

 TURBULENCE REGIME FOR SOLID BOUNDARIES
 MOTINT(104)=         2

 MAXIMUM NUMBER OF DROGUES
 MOTINT(119)=         0

 PRINTOUT PERIOD FOR DROGUES
 MOTINT(120)=         1

 NUMBER OF LAGRANGIAN DRIFTS
 MOTINT(127)=         0

 BOTTOM SMOOTHINGS
 MOTINT(  1)=         0

 SOLVER OPTION FOR TRACERS DIFFUSION
 MOTINT(113)=         2

 SOLVER OPTION
 MOTINT( 64)=         2

 OPTION FOR THE SOLVER FOR K-EPSILON MODEL
 MOTINT(102)=         2

 OPTION FOR THE TREATMENT OF TIDAL FLATS
 MOTINT(108)=         1

 VECTOR LENGTH
 MOTINT(  6)=         1

 SUPG OPTION
 MOTINT( 77)=         0

 SUPG OPTION
 MOTINT( 78)=         0

 SUPG OPTION
 MOTINT( 79)=         2

 SUPG OPTION
 MOTINT( 80)=         2

 INITIAL GUESS FOR U
 MOTINT( 71)=         1

 RECORD NUMBER FOR RESTART
 MOTINT(  7)=        -1

 MATRIX STORAGE
 MOTINT( 96)=         3

 ORIGINAL DATE OF TIME
 MOTINT( 56)=      1900

 ORIGINAL DATE OF TIME
 MOTINT( 57)=         1

 ORIGINAL DATE OF TIME
 MOTINT( 58)=         1

 ORIGINAL HOUR OF TIME
 MOTINT( 59)=         0

 ORIGINAL HOUR OF TIME
 MOTINT( 60)=         0

 ORIGINAL HOUR OF TIME
 MOTINT( 61)=         0

 MATRIX-VECTOR PRODUCT
 MOTINT( 97)=         1

 CONTROL SECTIONS
 VALUE NOT FOUND

 NUMBER OF WEIRS
 MOTINT(128)=         0

 FINITE VOLUME SCHEME FOR TRACER DIFFUSION
 MOTINT( 91)=         1

 FINITE VOLUME SCHEME FOR TRACER DIFFUSION
 MOTINT( 92)=         1

 OPTION FOR LIQUID BOUNDARIES
 VALUE NOT FOUND

 TREATMENT OF THE LINEAR SYSTEM
 MOTINT( 45)=         2

 PARALLEL PROCESSORS
 MOTINT(  2)=         0

 VELOCITY PROFILES
 MOTINT( 22)=         4

 VELOCITY PROFILES
 MOTINT( 23)=         1

 OPTION FOR THE DIFFUSION OF TRACERS
 MOTINT(116)=         1

 OPTION FOR THE DIFFUSION OF VELOCITIES
 MOTINT( 89)=         1

 TYPE OF SOURCES
 MOTINT( 40)=         1

 NUMBER OF PRIVATE ARRAYS
 MOTINT( 12)=         0

 LANGUAGE
 MOTINT(142)=         2

 RECORD NUMBER IN WAVE FILE
 MOTINT( 36)=         1

 IDENTIFICATION METHOD
 MOTINT( 38)=         1

 LIST OF POINTS
 VALUE NOT FOUND

 COST FUNCTION
 MOTINT( 37)=         1

 MAXIMUM NUMBER OF ITERATIONS FOR IDENTIFICATION
 MOTINT( 39)=        20

 COUPLING PERIOD FOR SISYPHE
 MOTINT(140)=         1

 FINITE VOLUME SCHEME
 MOTINT( 46)=         1

 MAXIMUM NUMBER OF FRICTION DOMAINS
 MOTINT( 26)=        10

 LISTING FOR PRINTOUT PERIOD
 MOTINT( 17)=         1

 OPTION FOR DIRICHLET CONDITION IN FV DIFFUSION
 MOTINT( 94)=         1

 DELWAQ PRINTOUT PERIOD
 MOTINT(139)=         1

 NUMBER OF TRACERS
 MOTINT(110)=         0

 STAGE-DISCHARGE CURVES
 VALUE NOT FOUND

 DEBUGGER
 MOTINT( 54)=         0

 TREATMENT OF NEGATIVE DEPTHS
 MOTINT(109)=         2

 DEPTH IN FRICTION TERMS
 MOTINT( 28)=         1

 LAW OF FRICTION ON LATERAL BOUNDARIES
 MOTINT( 29)=         4

 COUPLING PERIOD FOR TOMAWAC
 MOTINT(141)=         1

 TREATMENT OF FLUXES AT THE BOUNDARIES
 MOTINT( 86)=         1

 OPTION FOR TIDAL BOUNDARY CONDITIONS
 VALUE NOT FOUND

 OPTION FOR TSUNAMI GENERATION
 MOTINT( 53)=         0

 TIDAL DATA BASE
 MOTINT(137)=        -1

 GEOGRAPHIC SYSTEM
 MOTINT(132)=        -1

 ZONE NUMBER IN GEOGRAPHIC SYSTEM
 MOTINT(133)=        -1

 NUMBER OF ALGAE CLASSES
 MOTINT(121)=         0

 SPATIAL PROJECTION TYPE
 MOTINT( 62)=         1

 ALGAE TYPE
 MOTINT(122)=         1

 ALGAE TYPE
 MOTINT(123)=         1

 OPTION FOR CHARACTERISTICS
 MOTINT( 76)=         1

 MAXIMUM NUMBER OF ITERATIONS FOR ADVECTION SCHEMES
 MOTINT( 82)=        50

 STOCHASTIC DIFFUSION MODEL
 MOTINT(126)=         0

 NUMBER OF GAUSS POINTS FOR WEAK CHARACTERISTICS
 MOTINT( 81)=         3

 TYPE OF WEIRS
 MOTINT(129)=         1

 SCHEME FOR ADVECTION OF VELOCITIES
 MOTINT( 83)=        14

 SCHEME FOR ADVECTION OF TRACERS
 MOTINT(117)=         5

 SCHEME FOR ADVECTION OF K-EPSILON
 MOTINT(105)=        14

 SCHEME OPTION FOR ADVECTION OF TRACERS
 MOTINT(118)=         1

 SCHEME OPTION FOR ADVECTION OF VELOCITIES
 MOTINT( 84)=         1

 SCHEME OPTION FOR ADVECTION OF K-EPSILON
 MOTINT(106)=         1

 OPTION FOR WIND
 MOTINT( 32)=         1

 MAXIMUM NUMBER OF BOUNDARIES
 MOTINT(  3)=        30

 MAXIMUM NUMBER OF SOURCES
 MOTINT(  4)=        20

 MAXIMUM NUMBER OF TRACERS
 MOTINT(  5)=        20

 LOCAL NUMBER OF THE POINT TO CALIBRATE HIGH WATER
 MOTINT(138)=         0

 GLOBAL NUMBER OF THE POINT TO CALIBRATE HIGH WATER
 MOTINT(134)=         0

 WATER QUALITY PROCESS
 MOTINT( 44)=         1

 OPTION OF THE HYDROSTATIC RECONSTRUCTION
 MOTINT( 98)=         1

 OPTION FOR CULVERTS
 MOTINT(131)=         1

 RAINFALL-RUNOFF MODEL
 MOTINT( 33)=         0

 AD NUMBER OF DERIVATIVES
 MOTINT( 95)=         0

 ANTECEDENT MOISTURE CONDITIONS
 MOTINT( 34)=         2

 OPTION FOR INITIAL ABSTRACTION RATIO
 MOTINT( 35)=         1

 REFINEMENT LEVELS
 MOTINT( 99)=         0

 FINITE ELEMENT ASSEMBLY
 MOTINT( 67)=         1

 RESTART FILE PRINTOUT PERIOD
 MOTINT(  8)=         0

 RECORD NUMBER IN RESTART FILE
 MOTINT(  9)=        -1

 GLOBAL NUMBERS OF SOURCE NODES
 VALUE NOT FOUND

 MAXIMUM NUMBER OF POINTS FOR SOURCES REGIONS
 MOTINT( 43)=        10

 ALGAE RELEASE TYPE
 MOTINT(124)=         1

 ALGAE RELEASE TYPE
 MOTINT(125)=         1

 FINITE VOLUME SCHEME SPACE ORDER
 MOTINT( 47)=         1

 FINITE VOLUME SCHEME TIME ORDER
 MOTINT( 48)=         1

 FLUX LIMITOR FOR H PLUS Z
 MOTINT( 49)=         1

 FLUX LIMITOR FOR U AND V
 MOTINT( 50)=         2

 FLUX LIMITOR FOR TRACERS
 MOTINT( 51)=         2

 TYPE OF BOUNDARY CONDITION FOR KINETIC SCHEME
 MOTINT( 52)=         1

 OPTION FOR THE RTPF SCHEME RECONSTRUCTIONS
 MOTINT( 93)=         1

 TIME STEP
 MOTREA( 69)=     1.000000

 GRAVITY ACCELERATION
 MOTREA( 55)=     9.810000

 ZERO
 MOTREA( 97)=    0.1000000E-09

 FRICTION COEFFICIENT
 MOTREA( 15)=     80.00000

 CORIOLIS COEFFICIENT
 MOTREA( 56)=     0.000000

 COEFFICIENT OF WIND INFLUENCE
 MOTREA( 23)=    0.1550000E-05

 WIND VELOCITY ALONG X
 MOTREA( 24)=     0.000000

 WIND VELOCITY ALONG Y
 MOTREA( 25)=     0.000000

 INITIAL VALUES OF TRACERS
 MOTREA(111)=     0.000000

 INITIAL VALUES OF TRACERS
 MOTREA(112)=     0.000000

 COEFFICIENT FOR DIFFUSION OF TRACERS
 MOTREA(120)=    0.1000000E-05

 ACCURACY FOR DIFFUSION OF TRACERS
 MOTREA(114)=    0.1000000E-05

 IMPLICITATION COEFFICIENT OF TRACERS
 MOTREA(119)=    0.6000000

 VELOCITY DIFFUSIVITY
 MOTREA( 98)=    0.1000000E-05

 SOLVER ACCURACY
 MOTREA( 87)=    0.1000000E-03

 LIMIT VALUES
 MOTREA( 74)=    -1000.000

 LIMIT VALUES
 MOTREA( 75)=     9000.000

 LIMIT VALUES
 MOTREA( 76)=    -1000.000

 LIMIT VALUES
 MOTREA( 77)=     1000.000

 LIMIT VALUES
 MOTREA( 78)=    -1000.000

 LIMIT VALUES
 MOTREA( 79)=     1000.000

 LIMIT VALUES
 MOTREA( 80)=    -1000.000

 LIMIT VALUES
 MOTREA( 81)=     1000.000

 THRESHOLD DEPTH FOR RECEDING PROCEDURE
 MOTREA(107)=     0.000000

 IMPLICITATION FOR DEPTH
 MOTREA( 88)=    0.5500000

 IMPLICITATION FOR VELOCITY
 MOTREA( 89)=    0.5500000

 IMPLICITATION FOR DIFFUSION OF VELOCITY
 MOTREA( 95)=     1.000000

 MASS-LUMPING ON H
 MOTREA( 92)=     1.000000

 MASS-LUMPING ON VELOCITY
 MOTREA( 93)=     1.000000

 MINIMUM VALUE OF DEPTH
 MOTREA(108)=     0.000000

 NON-NEWTONIAN VISCOSITY
 MOTREA( 18)=     0.000000

 ACCURACY OF K
 MOTREA(104)=    0.1000000E-08

 ACCURACY OF EPSILON
 MOTREA(105)=    0.1000000E-08

 MEAN DEPTH FOR LINEARIZATION
 MOTREA( 90)=     0.000000

 WATER DENSITY
 MOTREA( 54)=     1000.000

 LATITUDE OF ORIGIN POINT
 MOTREA( 84)=     48.00000

 ROUGHNESS COEFFICIENT OF BOUNDARIES
 MOTREA( 17)=    0.3000000E-01

 PRESCRIBED FLOWRATES
 MOTREA( 10)=     35.00000

 PRESCRIBED FLOWRATES
 MOTREA( 11)=     0.000000

 PRESCRIBED ELEVATIONS
 MOTREA(  8)=     0.000000

 PRESCRIBED ELEVATIONS
 MOTREA(  9)=     371.3300

 PRESCRIBED VELOCITIES
 VALUE NOT FOUND

 INITIAL ELEVATION
 MOTREA(  1)=     0.000000

 INITIAL DEPTH
 MOTREA(  2)=     0.000000

 PRESCRIBED TRACERS VALUES
 VALUE NOT FOUND

 ABSCISSAE OF SOURCES
 VALUE NOT FOUND

 ORDINATES OF SOURCES
 VALUE NOT FOUND

 WATER DISCHARGE OF SOURCES
 VALUE NOT FOUND

 VALUES OF THE TRACERS AT THE SOURCES
 VALUE NOT FOUND

 MIXING LENGTH MODEL COEFFICIENTS
 MOTREA(102)=    0.1066667

 MIXING LENGTH MODEL COEFFICIENTS
 MOTREA(103)=    0.6666670E-01

 STOP CRITERIA
 MOTREA( 71)=    0.1000000E-03

 STOP CRITERIA
 MOTREA( 72)=    0.1000000E-03

 STOP CRITERIA
 MOTREA( 73)=    0.1000000E-03

 MEAN TEMPERATURE
 MOTREA(113)=     20.00000

 VELOCITIES OF THE SOURCES ALONG X
 VALUE NOT FOUND

 VELOCITIES OF THE SOURCES ALONG Y
 VALUE NOT FOUND

 DURATION
 MOTREA( 70)=     0.000000

 NORTH
 MOTREA( 86)=     0.000000

 NON-DIMENSIONAL DISPERSION COEFFICIENTS
 MOTREA(100)=     6.000000

 NON-DIMENSIONAL DISPERSION COEFFICIENTS
 MOTREA(101)=    0.6000000

 LONGITUDE OF ORIGIN POINT
 MOTREA( 85)=     0.000000

 MASS-LUMPING ON TRACERS
 MOTREA(121)=     1.000000

 DESIRED COURANT NUMBER
 MOTREA( 82)=     1.000000

 FOURIER ANALYSIS PERIODS
 VALUE NOT FOUND

 TOLERANCES FOR IDENTIFICATION
 MOTREA( 40)=    0.1000000E-02

 TOLERANCES FOR IDENTIFICATION
 MOTREA( 41)=    0.1000000E-02

 TOLERANCES FOR IDENTIFICATION
 MOTREA( 42)=    0.1000000E-02

 TOLERANCES FOR IDENTIFICATION
 MOTREA( 43)=    0.1000000E-03

 MANNING DEFAULT VALUE FOR COLEBROOK-WHITE LAW
 MOTREA( 16)=    0.2000000E-01

 MINIMUM DEPTH TO COMPUTE TIDAL VELOCITIES INITIAL CONDITIONS
 MOTREA(139)=    0.1000000

 MINIMUM DEPTH TO COMPUTE TIDAL VELOCITIES BOUNDARY CONDITIONS
 MOTREA(142)=    0.1000000

 THRESHOLD DEPTH FOR WIND
 MOTREA( 28)=     1.000000

 THRESHOLD FOR NEGATIVE DEPTHS
 MOTREA(106)=     0.000000

 FREE SURFACE GRADIENT COMPATIBILITY
 MOTREA( 94)=    0.1000000

 TIME RANGE FOR FOURIER ANALYSIS
 MOTREA(  6)=     0.000000

 TIME RANGE FOR FOURIER ANALYSIS
 MOTREA(  7)=     0.000000

 NEWMARK TIME INTEGRATION COEFFICIENT
 MOTREA( 96)=    0.5000000

 RAIN OR EVAPORATION IN MM PER DAY
 MOTREA( 30)=     0.000000

 PHYSICAL CHARACTERISTICS OF THE TSUNAMI
 MOTREA( 57)=     100.0000

 PHYSICAL CHARACTERISTICS OF THE TSUNAMI
 MOTREA( 58)=     210000.0

 PHYSICAL CHARACTERISTICS OF THE TSUNAMI
 MOTREA( 59)=     75000.00

 PHYSICAL CHARACTERISTICS OF THE TSUNAMI
 MOTREA( 60)=     13.60000

 PHYSICAL CHARACTERISTICS OF THE TSUNAMI
 MOTREA( 61)=     81.00000

 PHYSICAL CHARACTERISTICS OF THE TSUNAMI
 MOTREA( 62)=     41.00000

 PHYSICAL CHARACTERISTICS OF THE TSUNAMI
 MOTREA( 63)=     110.0000

 PHYSICAL CHARACTERISTICS OF THE TSUNAMI
 MOTREA( 64)=     0.000000

 PHYSICAL CHARACTERISTICS OF THE TSUNAMI
 MOTREA( 65)=     0.000000

 PHYSICAL CHARACTERISTICS OF THE TSUNAMI
 MOTREA( 66)=     3.000000

 VALUES OF TRACERS IN THE RAIN
 VALUE NOT FOUND

 COEFFICIENT TO CALIBRATE TIDAL RANGE
 MOTREA(140)=     1.000000

 COEFFICIENT TO CALIBRATE TIDAL VELOCITIES
 MOTREA(141)=     999999.0

 COEFFICIENT TO CALIBRATE SEA LEVEL
 MOTREA(138)=     0.000000

 INITIAL DROGUES SAMPLING DENSITY
 MOTREA(122)=     1000.000

 INITIAL DROGUES SAMPLING DENSITY
 MOTREA(123)=     1000.000

 DIAMETER OF ALGAE
 MOTREA(124)=    0.1000000

 DIAMETER OF ALGAE
 MOTREA(125)=    0.1000000

 DENSITY OF ALGAE
 MOTREA(128)=     1050.000

 DENSITY OF ALGAE
 MOTREA(129)=     1050.000

 THICKNESS OF ALGAE
 MOTREA(130)=    0.1000000E-01

 THICKNESS OF ALGAE
 MOTREA(131)=    0.1000000E-01

 MASS-LUMPING FOR WEAK CHARACTERISTICS
 MOTREA( 91)=     0.000000

 SPEED AND DIRECTION OF WIND
 MOTREA( 26)=     0.000000

 SPEED AND DIRECTION OF WIND
 MOTREA( 27)=     0.000000

 VALUE OF ATMOSPHERIC PRESSURE
 MOTREA( 29)=     100000.0

 PRODUCTION COEFFICIENT FOR SECONDARY CURRENTS
 MOTREA( 67)=     7.071000

 DISSIPATION COEFFICIENT FOR SECONDARY CURRENTS
 MOTREA( 68)=    0.5000000

 DURATION OF RAIN OR EVAPORATION IN HOURS
 MOTREA( 35)=     1000000.

 ACCURACY OF SPALART-ALLMARAS
 MOTREA( 99)=    0.1000000E-08

 DURATION BEFORE ALGAE RELEASE
 MOTREA(126)=     0.000000

 DURATION BEFORE ALGAE RELEASE
 MOTREA(127)=     0.000000

 SECURITY COEFFICIENT FOR SCARACT
 MOTREA(  3)=     1.000000

 WAVE ORBITAL VELOCITY THRESHOLD FOR ALGAE 1
 MOTREA(132)=     2.000000

 WAVE ORBITAL VELOCITY THRESHOLD FOR ALGAE 1
 MOTREA(133)=     2.000000

 WAVE ORBITAL VELOCITY THRESHOLD FOR ALGAE 2
 MOTREA(134)=     0.000000

 WAVE ORBITAL VELOCITY THRESHOLD FOR ALGAE 2
 MOTREA(135)=     0.000000

 RATE OF DEGRADATION FOR ALGAE
 MOTREA(136)=     0.000000

 RATE OF DEGRADATION FOR ALGAE
 MOTREA(137)=     0.000000

 AIR TEMPERATURE
 MOTREA( 36)=     20.00000

 CLOUD COVER
 MOTREA( 37)=     5.000000

 SOLAR RADIATION
 MOTREA( 38)=     160.0000

 VAPOROUS PRESSURE
 MOTREA( 39)=     1000.000

 NON-NEWTONIAN YIELD STRESS
 MOTREA( 19)=     0.000000

 NON-NEWTONIAN LAMINAR RESISTANCE PARAMETER K
 MOTREA( 20)=     24.00000

 NON-NEWTONIAN FLUID DENSITY
 MOTREA( 21)=     1000.000

 HERSCHEL-BULKLEY POWER-LAW INDEX
 MOTREA( 22)=     1.000000

 STAGE-DISCHARGE CURVES RELAXATION COEFFICIENT
 MOTREA( 14)=    0.2000000E-01

 DESIRED FOURIER NUMBER
 MOTREA( 83)=     1.000000

 HORTON TIME CONSTANT
 MOTREA( 31)=    0.1000000E-02

 INITIAL WATER CONTENT
 MOTREA( 32)=     0.000000

 SATURATED WATER CONTENT
 MOTREA( 33)=    0.5000000

 SUCTION
 MOTREA( 34)=    0.2000000

 COMPUTATION CONTINUED
 MOTLOG(  4)= T

 BREACH
 MOTLOG( 56)= F

 LISTING PRINTOUT
 MOTLOG( 12)= T

 DIFFUSION OF VELOCITY
 MOTLOG( 41)= T

 AIR PRESSURE
 MOTLOG( 22)= F

 ADVECTION
 MOTLOG( 38)= T

 ADVECTION OF U AND V
 MOTLOG( 40)= T

 ADVECTION OF H
 MOTLOG( 39)= T

 ADVECTION OF TRACERS
 MOTLOG( 52)= T

 ADVECTION OF K AND EPSILON
 MOTLOG( 48)= T

 DIFFUSION OF TRACERS
 MOTLOG( 53)= T

 PROPAGATION
 MOTLOG( 36)= T

 CORIOLIS
 MOTLOG( 28)= F

 WIND
 MOTLOG( 20)= F

 INFORMATION ABOUT SOLVER
 MOTLOG( 14)= T

 MASS-BALANCE
 MOTLOG( 13)= T

 H CLIPPING
 MOTLOG( 50)= F

 SPHERICAL COORDINATES
 MOTLOG( 33)= F

 RAIN OR EVAPORATION
 MOTLOG( 23)= F

 LINEARIZED PROPAGATION
 MOTLOG( 37)= F

 VALIDATION
 MOTLOG(  2)= F

 INFORMATION ABOUT K-EPSILON MODEL
 MOTLOG( 47)= T

 CONTROL OF LIMITS
 MOTLOG( 31)= F

 TIDAL FLATS
 MOTLOG( 49)= T

 STOP IF A STEADY STATE IS REACHED
 MOTLOG( 30)= F

 ELEMENTS MASKED BY USER
 MOTLOG( 15)= F

 DENSITY EFFECTS
 MOTLOG( 51)= F

 TIDE GENERATING FORCE
 MOTLOG( 60)= F

 CONTINUITY CORRECTION
 MOTLOG( 34)= T

 INITIAL TIME SET TO ZERO
 MOTLOG(  5)= F

 C-U PRECONDITIONING
 MOTLOG( 35)= T

 VARIABLE TIME-STEP
 MOTLOG( 32)= F

 WAVE DRIVEN CURRENTS
 MOTLOG( 25)= F

 VERTICAL STRUCTURES
 MOTLOG( 27)= F

 AD SYMBOLIC LINEAR SOLVER
 MOTLOG( 42)= F

 DEFINITION OF ZONES
 MOTLOG( 18)= F

 FRICTION DATA
 MOTLOG( 16)= F

 VEGETATION FRICTION
 MOTLOG( 17)= F

 PRINTING CUMULATED FLOWRATES
 MOTLOG(  9)= T

 COMPATIBLE COMPUTATION OF FLUXES
 MOTLOG( 10)= F

 SALINITY FOR DELWAQ
 MOTLOG( 64)= F

 TEMPERATURE FOR DELWAQ
 MOTLOG( 63)= F

 VELOCITY FOR DELWAQ
 MOTLOG( 61)= F

 DIFFUSIVITY FOR DELWAQ
 MOTLOG( 62)= F

 OIL SPILL MODEL
 MOTLOG( 55)= F

 MINOR CONSTITUENTS INFERENCE
 MOTLOG( 58)= F

 ALGAE TRANSPORT MODEL
 MOTLOG( 54)= F

 INFORMATION ABOUT SPALART-ALLMARAS MODEL
 MOTLOG( 46)= T

 SECONDARY CURRENTS
 MOTLOG( 29)= F

 WAVE ENHANCED FRICTION FACTOR
 MOTLOG( 26)= F

 CHECKING THE MESH
 MOTLOG(  3)= F

 FLUXLINE
 MOTLOG( 11)= F

 CONVERGENCE STUDY
 MOTLOG( 45)= F

 AD LINEAR SOLVER RESET DERIVATIVES
 MOTLOG( 43)= T

 AD LINEAR SOLVER DERIVATIVE CONVERGENCE
 MOTLOG( 44)= T

 RESULT FILE IN LONGITUDE-LATITUDE
 MOTLOG(  8)= T

 NESTOR
 MOTLOG( 65)= F

 CONCATENATE PARTEL OUTPUT
 MOTLOG( 66)= F

 COEFFICIENT OF WIND INFLUENCE VARYING WITH WIND SPEED
 MOTLOG( 21)= T

 BOTTOM SMOOTHINGS AFTER USER MODIFICATIONS
 MOTLOG(  1)= T

 INITIAL VELOCITIES COMPUTED BY TPXO
 MOTLOG( 59)= T

 NON-NEWTONIAN PSEUDO-BIPHASIC MODEL
 MOTLOG( 19)= F

 FREE FORMAT FOR ATMOSPHERIC DATA FILE
 MOTLOG( 24)= F

 INITIAL WIDTHS OF BREACHES
 MOTLOG( 57)= F

 RESTART MODE
 MOTLOG(  6)= F

 USE MAXIMUM VALUES FROM PREVIOUS COMPUTATION FILE
 MOTLOG(  7)= T

 TITLE
 MOTCAR(  1)= 2d steady with (Strickler) friction zones

 VARIABLES FOR GRAPHIC PRINTOUTS
 MOTCAR( 20)= U,V,B,Q,F,H,W

 VARIABLES TO BE PRINTED
 MOTCAR( 37)=

 GEOMETRY FILE
 MOTCAR( 10) = T2DGEO-READ;T2DGEO;OBLIG;BIN;LIT;SELAFIN-GEOM ; qgismesh-friction.slf

 FORTRAN FILE
 MOTCAR( 11) = INUTILE;INUTILE;FACUL;ASC;LIT;FORTRAN ;

 STEERING FILE
 MOTCAR( 97) = INUTILE;T2DCAS;OBLIG;ASC;LIT;CAS ;

 BOUNDARY CONDITIONS FILE
 MOTCAR( 13) = T2DLIM-READ;T2DCLI;OBLIG;ASC;LIT;CONLIM ; boundaries.cli

 PREVIOUS COMPUTATION FILE
 MOTCAR( 17) = T2DPRE-READ;T2DPRE;FACUL;BIN;LIT;SELAFIN ; r2dsteady-t15k.slf

 RESULTS FILE
 MOTCAR( 24) = T2DRES-WRITE;T2DRES;OBLIG;BIN;ECR;SELAFIN ; r2dsteady-ks-zonal.slf

 AD NAMES OF DERIVATIVES
 VALUE NOT FOUND

 FORMATTED RESULTS FILE 1
 MOTCAR( 28) = T2DRF1-WRITE;T2DRF1;FACUL;ASC;ECR;SCAL ;

 BOTTOM TOPOGRAPHY FILE
 MOTCAR( 12) = T2DFON-READ;T2DFON;FACUL;ASC;LIT;PARAL ;

 TIDAL MODEL FILE FORMAT
 MOTCAR( 72)= SERAFIN

 BINARY DATA FILE 1
 MOTCAR(  4) = T2DBI1-READ;T2DBI1;FACUL;BIN;LIT;SELAFIN ;

 BINARY DATA FILE 2
 MOTCAR(  6) = T2DBI2-READ;T2DBI2;FACUL;BIN;LIT;PARAL ;

 FORMATTED DATA FILE 1
 MOTCAR(  7) = T2DFO1-READ;T2DFO1;FACUL;ASC;LIT;PARAL ;

 FORMATTED DATA FILE 2
 MOTCAR(  8) = T2DFO2-READ;T2DFO2;FACUL;ASC;LIT;PARAL ;

 FORMATTED RESULTS FILE 2
 MOTCAR( 29) = T2DRF2-WRITE;T2DRF2;FACUL;ASC;ECR;SCAL ;

 FORMATTED RESULTS FILE 3
 MOTCAR( 30) = T2DRF3-WRITE;T2DRF3;FACUL;ASC;ECR;SCAL ;

 NAMES OF CLANDESTINE VARIABLES
 VALUE NOT FOUND

 BINARY RESULTS FILE
 MOTCAR( 26) = T2DRBI-WRITE;T2DRBI;FACUL;BIN;ECR;PARAL ;

 FORMATTED RESULTS FILE
 MOTCAR( 27) = T2DRFO-WRITE;T2DRFO;FACUL;ASC;ECR;SCAL ;

 INITIAL CONDITIONS
 MOTCAR(  2)= ZERO ELEVATION

 GEOMETRY FILE FORMAT
 MOTCAR(  9)= SERAFIN

 RESULTS FILE FORMAT
 MOTCAR( 23)= SERAFIN

 PREVIOUS COMPUTATION FILE FORMAT
 MOTCAR( 16)= SERAFIN

 FORMATTED RESULTS FILE 4
 MOTCAR( 31) = T2DRF4-WRITE;T2DRF4;FACUL;ASC;ECR;SCAL ;

 FORMATTED RESULTS FILE 5
 MOTCAR( 32) = T2DRF5-WRITE;T2DRF5;FACUL;ASC;ECR;SCAL ;

 FORMATTED RESULTS FILE 6
 MOTCAR( 33) = T2DRF6-WRITE;T2DRF6;FACUL;ASC;ECR;SCAL ;

 ASCII ATMOSPHERIC DATA FILE
 MOTCAR( 44) = T2ATMA-READ;T2ATMA;FACUL;ASC;LIT;SCAL ;

 BINARY ATMOSPHERIC DATA FILE
 MOTCAR( 45) = T2ATMB-READ;T2ATMB;FACUL;BIN;LIT;SELAFIN ;

 LAMBERT 93 CONVERSION FILE
 MOTCAR( 69) = NL93-READ;T2DL93;FACUL;ASC;LIT;SCAL ;

 EQUATIONS
 MOTCAR( 50)= SAINT-VENANT FE

 REFERENCE FILE
 MOTCAR( 15) = T2DREF-READ;T2DREF;FACUL;BIN;LIT;SELAFIN ;

 LIQUID BOUNDARIES FILE
 MOTCAR( 41) = T2DIMP-READ;T2DIMP;FACUL;ASC;LIT;PARAL ;

 WEIRS DISCHARGE OUTPUT FILE
 MOTCAR( 64) = T2DWOP-WRITE;T2DWOP;FACUL;ASC;ECR;WEIRS ;

 COUPLING WITH
 MOTCAR( 74)=

 BINARY ATMOSPHERIC DATA FILE FORMAT
 MOTCAR( 46)= SERAFIN

 RESTART FILE
 MOTCAR( 18) = T2DRST-WRITE;T2DRST;FACUL;BIN;ECR;SELAFIN ;

 RESTART FILE FORMAT
 MOTCAR( 19)= SERAFIND

 DROGUES INITIAL POSITIONING DATA FILE
 MOTCAR( 60) = T2DPLY-READ;T2DPLY;FACUL;ASC;LIT;PARAL ;

 FORMAT OF THE DROGUES POSITIONING DATA FILE
 MOTCAR( 61)= BKASCI2S

 NESTOR ACTION FILE
 MOTCAR( 93) = T2NACT-READ;T2NACT;FACUL;ASC;LIT;PARAL ;

 NESTOR POLYGON FILE
 MOTCAR( 94) = T2NPOL-READ;T2NPOL;FACUL;ASC;LIT;PARAL ;

 NESTOR SURFACE REFERENCE FILE
 MOTCAR( 95) = T2NREF-READ;T2NREF;FACUL;ASC;LIT;PARAL ;

 NESTOR RESTART FILE
 MOTCAR( 96) = T2NRST-READ;T2NRST;FACUL;ASC;LIT;PARAL ;

 PREVIOUS DROGUES FILE FORMAT
 MOTCAR( 59)= BKBINPCL

 DROGUES FILE FORMAT
 MOTCAR( 57)= TECPLOT

 PREVIOUS DROGUES FILE
 MOTCAR( 58) = T2DPLO-READ;T2DPLO;FACUL;BIN;LIT;SCAL ;

 GAIA STEERING FILE
 MOTCAR( 89)=

 ZONES FILE
 MOTCAR( 43) = T2DZFI-READ;T2DZFI;FACUL;ASC;LIT;ZONES ;

 PARAMETER ESTIMATION
 MOTCAR( 47)=

 NAMES OF POINTS
 VALUE NOT FOUND

 SISYPHE STEERING FILE
 MOTCAR( 88)=

 FRICTION DATA FILE
 MOTCAR( 42) = T2DCOF-READ;T2DCOF;FACUL;ASC;LIT;PARAL ;

 VOLUMES DELWAQ FILE
 MOTCAR( 81) = T2DDL1-WRITE;T2DDL1;FACUL;BIN;ECR;DELWAQPTS ;

 EXCHANGE AREAS DELWAQ FILE
 MOTCAR( 82) = T2DDL2-WRITE;T2DDL2;FACUL;BIN;ECR;DELWAQSEG ;

 VERTICAL FLUXES DELWAQ FILE
 MOTCAR( 83) = T2DDL3-WRITE;T2DDL3;FACUL;BIN;ECR;DELWAQSEG ;

 SALINITY DELWAQ FILE
 MOTCAR( 87) = T2DDL4-WRITE;T2DDL4;FACUL;BIN;ECR;DELWAQPTS ;

 BOTTOM SURFACES DELWAQ FILE
 MOTCAR( 80) = T2DDL5-WRITE;T2DDL5;FACUL;BIN;ECR;DELWAQMET ;

 EXCHANGES BETWEEN NODES DELWAQ FILE
 MOTCAR( 78) = T2DDL6-WRITE;T2DDL6;FACUL;BIN;ECR;DELWAQMET ;

 NODES DISTANCES DELWAQ FILE
 MOTCAR( 79) = T2DDL7-WRITE;T2DDL7;FACUL;BIN;ECR;DELWAQMET ;

 DELWAQ STEERING FILE
 MOTCAR( 77) = T2DL11-WRITE;T2DL11;FACUL;ASC;ECR;DELWAQHYD ;

 TEMPERATURE DELWAQ FILE
 MOTCAR( 86) = T2DDL8-WRITE;T2DDL8;FACUL;BIN;ECR;DELWAQPTS ;

 STAGE-DISCHARGE CURVES FILE
 MOTCAR( 40) = T2DMAB-READ;T2DMAB;FACUL;ASC;LIT;PARAL ;

 NAMES OF TRACERS
 VALUE NOT FOUND

 SOURCES FILE
 MOTCAR( 48) = T2DVEF-READ;T2DVEF;FACUL;ASC;LIT;PARAL ;

 VELOCITY DELWAQ FILE
 MOTCAR( 84) = T2DDL9-WRITE;T2DDL9;FACUL;BIN;ECR;DELWAQPTS ;

 DIFFUSIVITY DELWAQ FILE
 MOTCAR( 85) = T2DL10-WRITE;T2DL10;FACUL;BIN;ECR;DELWAQPTS ;

 REFERENCE FILE FORMAT
 MOTCAR( 14)= SERAFIN

 SECTIONS INPUT FILE
 MOTCAR( 34) = NSCS-READ;T2DSEC;FACUL;ASC;LIT;SECTION ;

 SECTIONS OUTPUT FILE
 MOTCAR( 35) = NSEO-WRITE;T2DSEO;FACUL;ASC;ECR;SCAL ;

 OIL SPILL STEERING FILE
 MOTCAR( 62) = NMIG-READ;T2DMIG;FACUL;ASC;LIT;PARAL ;

 TOMAWAC STEERING FILE
 MOTCAR( 90)=

 HARMONIC CONSTANTS FILE
 MOTCAR( 70) = NHAR-READWRITE;T2DHAR;FACUL;ASC;ECRLIT;PARAL ;

 TIDAL MODEL FILE
 MOTCAR( 71) = NTID-READ;T2DTID;FACUL;BIN;LIT;SCAL ;

 ASCII DATABASE FOR TIDE
 MOTCAR( 73) = NBDD-READ;T2DBDD;FACUL;ASC;LIT;PARAL ;

 BINARY DATABASE 1 FOR TIDE
 MOTCAR( 67) = NBB1-READ;T2DBB1;FACUL;BIN;LIT;SCAL ;

 BINARY DATABASE 2 FOR TIDE
 MOTCAR( 68) = NBB2-READ;T2DBB2;FACUL;BIN;LIT;SCAL ;

 WEIRS DATA FILE
 MOTCAR( 63) = T2DSEU-READ;T2DSEU;FACUL;ASC;LIT;WEIRS ;

 BINARY DROGUES FILE
 MOTCAR( 56) = T2DBLO-WRITE;T2DBLO;FACUL;BIN;ECR;SCAL ;

 CULVERTS DATA FILE
 MOTCAR( 65) = T2DBUS-READ;T2DBUS;FACUL;ASC;LIT;SCAL ;

 BREACHES DATA FILE
 MOTCAR( 66) = T2DBRC-READ;T2DBRC;FACUL;ASC;LIT;SCAL ;

 ASCII DROGUES FILE
 MOTCAR( 55) = T2DFLO-WRITE;T2DFLO;FACUL;ASC;ECR;SCAL ;

 WAQTEL STEERING FILE
 MOTCAR( 91)=

 KHIONE STEERING FILE
 MOTCAR( 92)=

 BINARY RESULTS FILE FORMAT
 MOTCAR( 25)= BIN

 BINARY DATA FILE 1 FORMAT
 MOTCAR(  3)= BIN

 BINARY DATA FILE 2 FORMAT
 MOTCAR(  5)= BIN

 NAMES OF PRIVATE VARIABLES
 VALUE NOT FOUND

 DICTIONARY
 MOTCAR( 98) = INUTILE;T2DDICO;OBLIG;ASC;LIT;DICO ; telemac2d.dico

 PARTITIONING TOOL
 MOTCAR( 99)= METIS

 FLUXLINE INPUT FILE
 MOTCAR( 36) = T2DFLX-READ;T2DFLX;FACUL;ASC;LIT;PARAL ;

 SOURCE REGIONS DATA FILE
 MOTCAR( 49) = T2DSDN-READ;T2DSDN;FACUL;ASC;LIT;PARAL ;

 DIFFERENT NUMBER OF PARALLEL PROCESSORS:
 DECLARED BEFORE (CASE OF COUPLING ?):           1
 TELEMAC-2D :           0
 VALUE            1  IS KEPT

                   ********************************************
                   *               LECDON:                    *
                   *        AFTER CALLING DAMOCLES            *
                   *        CHECKING OF DATA  READ            *
                   *         IN THE STEERING FILE             *
                   ********************************************

 EXITING LECDON. NAME OF THE STUDY:
 2d steady with (Strickler) friction zones

 OPENING FILES FOR TELEMAC2D
 OPENING: T2DGEO-qgismesh-friction.slf
 OPENING: T2DCLI-boundaries.cli
 OPENING: T2DPRE-r2dsteady-t15k.slf
 OPENING: T2DRES-r2dsteady-ks-zonal.slf

                          *****************************
                          *    MEMORY ORGANIZATION    *
                          *****************************

 READ_MESH_INFO: TITLE= new Selafin
            NUMBER OF ELEMENTS:    25007
            NUMBER OF POINTS:    12814

            TYPE OF ELEMENT: TRIANGLE
            TYPE OF BND ELEMENT: POINT

            FORMAT NOT INDICATED IN TITLE

 MXPTEL (BIEF) : MAXIMUM NUMBER OF ELEMENTS AROUND A POINT:   9
                 MAXIMUM NUMBER OF POINTS AROUND A POINT:   9
 USER_CORRXY (BIEF):NO MODIFICATION OF COORDINATES

 MESH: MESH   ALLOCATED

                     *************************************
                     *    END OF MEMORY ORGANIZATION:    *
                     *************************************

 INITIALIZING TELEMAC2D FOR
 INBIEF (BIEF): NOT A VECTOR MACHINE (ACCORDING TO YOUR DATA)
 FONSTR : FRICTION COEFFICIENTS READ IN THE
          GEOMETRY FILE
 STRCHE (BIEF): NO MODIFICATION OF FRICTION

 THERE IS     2 LIQUID BOUNDARIES:

 BOUNDARY    1 :
  BEGINS AT BOUNDARY POINT:        7 , WITH GLOBAL NUMBER:       144
  AND COORDINATES:     315152.3           5346010.
  ENDS AT BOUNDARY POINT:       25 , WITH GLOBAL NUMBER:        32
  AND COORDINATES:     315229.9           5345962.

 BOUNDARY    2 :
  BEGINS AT BOUNDARY POINT:      312 , WITH GLOBAL NUMBER:        34
  AND COORDINATES:     316899.1           5345987.
  ENDS AT BOUNDARY POINT:      324 , WITH GLOBAL NUMBER:         5
  AND COORDINATES:     316910.0           5346050.

 THERE IS     2 SOLID BOUNDARIES:

 BOUNDARY    1 :
  BEGINS AT BOUNDARY POINT:      324 , WITH GLOBAL NUMBER:         5
  AND COORDINATES:     316910.0           5346050.
  ENDS AT BOUNDARY POINT:        7 , WITH GLOBAL NUMBER:       144
  AND COORDINATES:     315152.3           5346010.

 BOUNDARY    2 :
  BEGINS AT BOUNDARY POINT:       25 , WITH GLOBAL NUMBER:        32
  AND COORDINATES:     315229.9           5345962.
  ENDS AT BOUNDARY POINT:      312 , WITH GLOBAL NUMBER:        34
  AND COORDINATES:     316899.1           5345987.

 CORFON (TELEMAC2D): NO MODIFICATION OF BOTTOM

 TITLE OF PREVIOUS COMPUTATION: 2d steady

 NAME: VELOCITY U        UNIT: M/S
 NAME: VELOCITY V        UNIT: M/S
 NAME: WATER DEPTH       UNIT: M
 NAME: FREE SURFACE      UNIT: M
 NAME: BOTTOM            UNIT: M
 NAME: FROUDE NUMBER     UNIT:
 NAME: SCALAR FLOWRATE   UNIT: M2/S

 READ_DATASET : READ OF RECORD     7

 TIME OF RECORD:     15000.00     S
 RESCUE : K AND EPSILON WILL BE SET AGAIN

================================================================================
 ITERATION        0    TIME:  4 H 10 MIN   0.0000 S   (    15000.0000 S)
 TELEMAC2D INITIALIZED

================================================================================
 ITERATION      100    TIME:  4 H 11 MIN  40.0000 S   (    15100.0000 S)
--------------------------------------------------------------------------------
                    DIFFUSION-PROPAGATION STEP
 CVTRVF_NERD_2 (SCHEME 13 OR 14):  15 ITERATIONS
 GRACJG (BIEF) :        4 ITERATIONS, ABSOLUTE PRECISION:   0.5469970E-04
 POSITIVE DEPTHS OBTAINED IN    15 ITERATIONS
--------------------------------------------------------------------------------
                          K-EPSILON MODEL
 CVTRVF_NERD_2 (SCHEME 13 OR 14):  15 ITERATIONS
 GRACJG (BIEF) :        2 ITERATIONS, RELATIVE PRECISION:   0.9763183E-10
 GRACJG (BIEF) :        2 ITERATIONS, RELATIVE PRECISION:   0.1965209E-09
--------------------------------------------------------------------------------
                       BALANCE OF WATER VOLUME
     VOLUME IN THE DOMAIN :    269022.7     M3
     FLUX BOUNDARY    1:     34.99949     M3/S  ( >0 : ENTERING  <0 : EXITING )
     FLUX BOUNDARY    2:    -34.82145     M3/S  ( >0 : ENTERING  <0 : EXITING )
     RELATIVE ERROR IN VOLUME AT T =       0.1510E+05 S :   -0.3143397E-14

================================================================================
 ITERATION      200    TIME:  4 H 13 MIN  20.0000 S   (    15200.0000 S)
--------------------------------------------------------------------------------
                    DIFFUSION-PROPAGATION STEP
 CVTRVF_NERD_2 (SCHEME 13 OR 14):  17 ITERATIONS
 GRACJG (BIEF) :        3 ITERATIONS, ABSOLUTE PRECISION:   0.6401460E-04
 POSITIVE DEPTHS OBTAINED IN    17 ITERATIONS
--------------------------------------------------------------------------------
                          K-EPSILON MODEL
 CVTRVF_NERD_2 (SCHEME 13 OR 14):  18 ITERATIONS
 GRACJG (BIEF) :        2 ITERATIONS, RELATIVE PRECISION:   0.5798324E-10
 GRACJG (BIEF) :        2 ITERATIONS, RELATIVE PRECISION:   0.1791693E-09
--------------------------------------------------------------------------------
                       BALANCE OF WATER VOLUME
     VOLUME IN THE DOMAIN :    269115.3     M3
     FLUX BOUNDARY    1:     35.00047     M3/S  ( >0 : ENTERING  <0 : EXITING )
     FLUX BOUNDARY    2:    -34.64598     M3/S  ( >0 : ENTERING  <0 : EXITING )
     RELATIVE ERROR IN VOLUME AT T =       0.1520E+05 S :    0.1035900E-13

================================================================================
 ITERATION      300    TIME:  4 H 15 MIN   0.0000 S   (    15300.0000 S)
--------------------------------------------------------------------------------
                    DIFFUSION-PROPAGATION STEP
 CVTRVF_NERD_2 (SCHEME 13 OR 14):  17 ITERATIONS
 GRACJG (BIEF) :        3 ITERATIONS, ABSOLUTE PRECISION:   0.3631551E-04
 POSITIVE DEPTHS OBTAINED IN    17 ITERATIONS
--------------------------------------------------------------------------------
                          K-EPSILON MODEL
 CVTRVF_NERD_2 (SCHEME 13 OR 14):  17 ITERATIONS
 GRACJG (BIEF) :        2 ITERATIONS, RELATIVE PRECISION:   0.3025423E-09
 GRACJG (BIEF) :        2 ITERATIONS, RELATIVE PRECISION:   0.1801575E-09
--------------------------------------------------------------------------------
                       BALANCE OF WATER VOLUME
     VOLUME IN THE DOMAIN :    269151.9     M3
     FLUX BOUNDARY    1:     34.99980     M3/S  ( >0 : ENTERING  <0 : EXITING )
     FLUX BOUNDARY    2:    -34.83971     M3/S  ( >0 : ENTERING  <0 : EXITING )
     RELATIVE ERROR IN VOLUME AT T =       0.1530E+05 S :    0.3363485E-14

================================================================================
 ITERATION      400    TIME:  4 H 16 MIN  40.0000 S   (    15400.0000 S)
--------------------------------------------------------------------------------
                    DIFFUSION-PROPAGATION STEP
 CVTRVF_NERD_2 (SCHEME 13 OR 14):  17 ITERATIONS
 GRACJG (BIEF) :        3 ITERATIONS, ABSOLUTE PRECISION:   0.2825795E-04
 POSITIVE DEPTHS OBTAINED IN    17 ITERATIONS
--------------------------------------------------------------------------------
                          K-EPSILON MODEL
 CVTRVF_NERD_2 (SCHEME 13 OR 14):  17 ITERATIONS
 GRACJG (BIEF) :        3 ITERATIONS, RELATIVE PRECISION:   0.2289358E-11
 GRACJG (BIEF) :        2 ITERATIONS, RELATIVE PRECISION:   0.1884566E-09
--------------------------------------------------------------------------------
                       BALANCE OF WATER VOLUME
     VOLUME IN THE DOMAIN :    269179.1     M3
     FLUX BOUNDARY    1:     35.00013     M3/S  ( >0 : ENTERING  <0 : EXITING )
     FLUX BOUNDARY    2:    -34.85701     M3/S  ( >0 : ENTERING  <0 : EXITING )
     RELATIVE ERROR IN VOLUME AT T =       0.1540E+05 S :    0.4525628E-14

================================================================================
 ITERATION      500    TIME:  4 H 18 MIN  20.0000 S   (    15500.0000 S)
--------------------------------------------------------------------------------
                    DIFFUSION-PROPAGATION STEP
 CVTRVF_NERD_2 (SCHEME 13 OR 14):  17 ITERATIONS
 GRACJG (BIEF) :        3 ITERATIONS, ABSOLUTE PRECISION:   0.2294328E-04
 POSITIVE DEPTHS OBTAINED IN    17 ITERATIONS
--------------------------------------------------------------------------------
                          K-EPSILON MODEL
 CVTRVF_NERD_2 (SCHEME 13 OR 14):  17 ITERATIONS
 GRACJG (BIEF) :        3 ITERATIONS, RELATIVE PRECISION:   0.1311076E-10
 GRACJG (BIEF) :        2 ITERATIONS, RELATIVE PRECISION:   0.1857702E-09
--------------------------------------------------------------------------------
                       BALANCE OF WATER VOLUME
     VOLUME IN THE DOMAIN :    269180.8     M3
     FLUX BOUNDARY    1:     34.99991     M3/S  ( >0 : ENTERING  <0 : EXITING )
     FLUX BOUNDARY    2:    -35.15613     M3/S  ( >0 : ENTERING  <0 : EXITING )
     RELATIVE ERROR IN VOLUME AT T =       0.1550E+05 S :   -0.3441547E-14

================================================================================
 ITERATION      600    TIME:  4 H 20 MIN   0.0000 S   (    15600.0000 S)
--------------------------------------------------------------------------------
                    DIFFUSION-PROPAGATION STEP
 CVTRVF_NERD_2 (SCHEME 13 OR 14):  17 ITERATIONS
 GRACJG (BIEF) :        3 ITERATIONS, ABSOLUTE PRECISION:   0.2781149E-04
 POSITIVE DEPTHS OBTAINED IN    17 ITERATIONS
--------------------------------------------------------------------------------
                          K-EPSILON MODEL
 CVTRVF_NERD_2 (SCHEME 13 OR 14):  17 ITERATIONS
 GRACJG (BIEF) :        3 ITERATIONS, RELATIVE PRECISION:   0.2035511E-10
 GRACJG (BIEF) :        2 ITERATIONS, RELATIVE PRECISION:   0.1810711E-09
--------------------------------------------------------------------------------
                       BALANCE OF WATER VOLUME
     VOLUME IN THE DOMAIN :    269157.1     M3
     FLUX BOUNDARY    1:     35.00016     M3/S  ( >0 : ENTERING  <0 : EXITING )
     FLUX BOUNDARY    2:    -35.31098     M3/S  ( >0 : ENTERING  <0 : EXITING )
     RELATIVE ERROR IN VOLUME AT T =       0.1560E+05 S :   -0.8414014E-14

================================================================================
 ITERATION      700    TIME:  4 H 21 MIN  40.0000 S   (    15700.0000 S)
--------------------------------------------------------------------------------
                    DIFFUSION-PROPAGATION STEP
 CVTRVF_NERD_2 (SCHEME 13 OR 14):  17 ITERATIONS
 GRACJG (BIEF) :        3 ITERATIONS, ABSOLUTE PRECISION:   0.2606778E-04
 POSITIVE DEPTHS OBTAINED IN    17 ITERATIONS
--------------------------------------------------------------------------------
                          K-EPSILON MODEL
 CVTRVF_NERD_2 (SCHEME 13 OR 14):  17 ITERATIONS
 GRACJG (BIEF) :        3 ITERATIONS, RELATIVE PRECISION:   0.1875895E-10
 GRACJG (BIEF) :        2 ITERATIONS, RELATIVE PRECISION:   0.1938729E-09
--------------------------------------------------------------------------------
                       BALANCE OF WATER VOLUME
     VOLUME IN THE DOMAIN :    269117.9     M3
     FLUX BOUNDARY    1:     35.00000     M3/S  ( >0 : ENTERING  <0 : EXITING )
     FLUX BOUNDARY    2:    -35.44681     M3/S  ( >0 : ENTERING  <0 : EXITING )
     RELATIVE ERROR IN VOLUME AT T =       0.1570E+05 S :   -0.5879079E-14

================================================================================
 ITERATION      800    TIME:  4 H 23 MIN  20.0000 S   (    15800.0000 S)
--------------------------------------------------------------------------------
                    DIFFUSION-PROPAGATION STEP
 CVTRVF_NERD_2 (SCHEME 13 OR 14):  17 ITERATIONS
 GRACJG (BIEF) :        3 ITERATIONS, ABSOLUTE PRECISION:   0.2550415E-04
 POSITIVE DEPTHS OBTAINED IN    17 ITERATIONS
--------------------------------------------------------------------------------
                          K-EPSILON MODEL
 CVTRVF_NERD_2 (SCHEME 13 OR 14):  17 ITERATIONS
 GRACJG (BIEF) :        3 ITERATIONS, RELATIVE PRECISION:   0.1126436E-10
 GRACJG (BIEF) :        2 ITERATIONS, RELATIVE PRECISION:   0.1940319E-09
--------------------------------------------------------------------------------
                       BALANCE OF WATER VOLUME
     VOLUME IN THE DOMAIN :    269071.0     M3
     FLUX BOUNDARY    1:     35.00005     M3/S  ( >0 : ENTERING  <0 : EXITING )
     FLUX BOUNDARY    2:    -35.46965     M3/S  ( >0 : ENTERING  <0 : EXITING )
     RELATIVE ERROR IN VOLUME AT T =       0.1580E+05 S :   -0.5305455E-14

================================================================================
 ITERATION      900    TIME:  4 H 25 MIN   0.0000 S   (    15900.0000 S)
--------------------------------------------------------------------------------
                    DIFFUSION-PROPAGATION STEP
 CVTRVF_NERD_2 (SCHEME 13 OR 14):  17 ITERATIONS
 GRACJG (BIEF) :        3 ITERATIONS, ABSOLUTE PRECISION:   0.2555458E-04
 POSITIVE DEPTHS OBTAINED IN    17 ITERATIONS
--------------------------------------------------------------------------------
                          K-EPSILON MODEL
 CVTRVF_NERD_2 (SCHEME 13 OR 14):  17 ITERATIONS
 GRACJG (BIEF) :        3 ITERATIONS, RELATIVE PRECISION:   0.6238601E-11
 GRACJG (BIEF) :        2 ITERATIONS, RELATIVE PRECISION:   0.1869338E-09
--------------------------------------------------------------------------------
                       BALANCE OF WATER VOLUME
     VOLUME IN THE DOMAIN :    269023.3     M3
     FLUX BOUNDARY    1:     35.00000     M3/S  ( >0 : ENTERING  <0 : EXITING )
     FLUX BOUNDARY    2:    -35.47234     M3/S  ( >0 : ENTERING  <0 : EXITING )
     RELATIVE ERROR IN VOLUME AT T =       0.1590E+05 S :   -0.1766721E-14

================================================================================
 ITERATION     1000    TIME:  4 H 26 MIN  40.0000 S   (    16000.0000 S)
--------------------------------------------------------------------------------
                    DIFFUSION-PROPAGATION STEP
 CVTRVF_NERD_2 (SCHEME 13 OR 14):  17 ITERATIONS
 GRACJG (BIEF) :        3 ITERATIONS, ABSOLUTE PRECISION:   0.2513733E-04
 POSITIVE DEPTHS OBTAINED IN    17 ITERATIONS
--------------------------------------------------------------------------------
                          K-EPSILON MODEL
 CVTRVF_NERD_2 (SCHEME 13 OR 14):  17 ITERATIONS
 GRACJG (BIEF) :        2 ITERATIONS, RELATIVE PRECISION:   0.8551078E-09
 GRACJG (BIEF) :        2 ITERATIONS, RELATIVE PRECISION:   0.8031053E-09
--------------------------------------------------------------------------------
                       BALANCE OF WATER VOLUME
     VOLUME IN THE DOMAIN :    268977.2     M3
     FLUX BOUNDARY    1:     35.00002     M3/S  ( >0 : ENTERING  <0 : EXITING )
     FLUX BOUNDARY    2:    -35.44065     M3/S  ( >0 : ENTERING  <0 : EXITING )
     RELATIVE ERROR IN VOLUME AT T =       0.1600E+05 S :   -0.2147923E-15

================================================================================
 ITERATION     1100    TIME:  4 H 28 MIN  20.0000 S   (    16100.0000 S)
--------------------------------------------------------------------------------
                    DIFFUSION-PROPAGATION STEP
 CVTRVF_NERD_2 (SCHEME 13 OR 14):  17 ITERATIONS
 GRACJG (BIEF) :        3 ITERATIONS, ABSOLUTE PRECISION:   0.2536767E-04
 POSITIVE DEPTHS OBTAINED IN    17 ITERATIONS
--------------------------------------------------------------------------------
                          K-EPSILON MODEL
 CVTRVF_NERD_2 (SCHEME 13 OR 14):  17 ITERATIONS
 GRACJG (BIEF) :        2 ITERATIONS, RELATIVE PRECISION:   0.5909868E-09
 GRACJG (BIEF) :        2 ITERATIONS, RELATIVE PRECISION:   0.1897722E-09
--------------------------------------------------------------------------------
                       BALANCE OF WATER VOLUME
     VOLUME IN THE DOMAIN :    268935.6     M3
     FLUX BOUNDARY    1:     35.00001     M3/S  ( >0 : ENTERING  <0 : EXITING )
     FLUX BOUNDARY    2:    -35.38916     M3/S  ( >0 : ENTERING  <0 : EXITING )
     RELATIVE ERROR IN VOLUME AT T =       0.1610E+05 S :    0.1948331E-14

================================================================================
 ITERATION     1200    TIME:  4 H 30 MIN   0.0000 S   (    16200.0000 S)
--------------------------------------------------------------------------------
                    DIFFUSION-PROPAGATION STEP
 CVTRVF_NERD_2 (SCHEME 13 OR 14):  17 ITERATIONS
 GRACJG (BIEF) :        3 ITERATIONS, ABSOLUTE PRECISION:   0.2523924E-04
 POSITIVE DEPTHS OBTAINED IN    17 ITERATIONS
--------------------------------------------------------------------------------
                          K-EPSILON MODEL
 CVTRVF_NERD_2 (SCHEME 13 OR 14):  17 ITERATIONS
 GRACJG (BIEF) :        2 ITERATIONS, RELATIVE PRECISION:   0.3759819E-09
 GRACJG (BIEF) :        2 ITERATIONS, RELATIVE PRECISION:   0.1900507E-09
--------------------------------------------------------------------------------
                       BALANCE OF WATER VOLUME
     VOLUME IN THE DOMAIN :    268899.8     M3
     FLUX BOUNDARY    1:     34.99999     M3/S  ( >0 : ENTERING  <0 : EXITING )
     FLUX BOUNDARY    2:    -35.32472     M3/S  ( >0 : ENTERING  <0 : EXITING )
     RELATIVE ERROR IN VOLUME AT T =       0.1620E+05 S :    0.2866748E-14

================================================================================
 ITERATION     1300    TIME:  4 H 31 MIN  40.0000 S   (    16300.0000 S)
--------------------------------------------------------------------------------
                    DIFFUSION-PROPAGATION STEP
 CVTRVF_NERD_2 (SCHEME 13 OR 14):  17 ITERATIONS
 GRACJG (BIEF) :        3 ITERATIONS, ABSOLUTE PRECISION:   0.2523053E-04
 POSITIVE DEPTHS OBTAINED IN    17 ITERATIONS
--------------------------------------------------------------------------------
                          K-EPSILON MODEL
 CVTRVF_NERD_2 (SCHEME 13 OR 14):  17 ITERATIONS
 GRACJG (BIEF) :        2 ITERATIONS, RELATIVE PRECISION:   0.2777422E-09
 GRACJG (BIEF) :        2 ITERATIONS, RELATIVE PRECISION:   0.1899239E-09
--------------------------------------------------------------------------------
                       BALANCE OF WATER VOLUME
     VOLUME IN THE DOMAIN :    268870.8     M3
     FLUX BOUNDARY    1:     35.00000     M3/S  ( >0 : ENTERING  <0 : EXITING )
     FLUX BOUNDARY    2:    -35.25651     M3/S  ( >0 : ENTERING  <0 : EXITING )
     RELATIVE ERROR IN VOLUME AT T =       0.1630E+05 S :   -0.3022183E-15

================================================================================
 ITERATION     1400    TIME:  4 H 33 MIN  20.0000 S   (    16400.0000 S)
--------------------------------------------------------------------------------
                    DIFFUSION-PROPAGATION STEP
 CVTRVF_NERD_2 (SCHEME 13 OR 14):  17 ITERATIONS
 GRACJG (BIEF) :        3 ITERATIONS, ABSOLUTE PRECISION:   0.2526552E-04
 POSITIVE DEPTHS OBTAINED IN    17 ITERATIONS
--------------------------------------------------------------------------------
                          K-EPSILON MODEL
 CVTRVF_NERD_2 (SCHEME 13 OR 14):  17 ITERATIONS
 GRACJG (BIEF) :        2 ITERATIONS, RELATIVE PRECISION:   0.2242537E-09
 GRACJG (BIEF) :        2 ITERATIONS, RELATIVE PRECISION:   0.1853137E-09
--------------------------------------------------------------------------------
                       BALANCE OF WATER VOLUME
     VOLUME IN THE DOMAIN :    268848.4     M3
     FLUX BOUNDARY    1:     35.00000     M3/S  ( >0 : ENTERING  <0 : EXITING )
     FLUX BOUNDARY    2:    -35.19193     M3/S  ( >0 : ENTERING  <0 : EXITING )
     RELATIVE ERROR IN VOLUME AT T =       0.1640E+05 S :   -0.4385912E-15

================================================================================
 ITERATION     1500    TIME:  4 H 35 MIN   0.0000 S   (    16500.0000 S)
--------------------------------------------------------------------------------
                    DIFFUSION-PROPAGATION STEP
 CVTRVF_NERD_2 (SCHEME 13 OR 14):  17 ITERATIONS
 GRACJG (BIEF) :        3 ITERATIONS, ABSOLUTE PRECISION:   0.2521237E-04
 POSITIVE DEPTHS OBTAINED IN    17 ITERATIONS
--------------------------------------------------------------------------------
                          K-EPSILON MODEL
 CVTRVF_NERD_2 (SCHEME 13 OR 14):  17 ITERATIONS
 GRACJG (BIEF) :        2 ITERATIONS, RELATIVE PRECISION:   0.1955430E-09
 GRACJG (BIEF) :        2 ITERATIONS, RELATIVE PRECISION:   0.1849242E-09
--------------------------------------------------------------------------------
                       BALANCE OF WATER VOLUME
     VOLUME IN THE DOMAIN :    268832.3     M3
     FLUX BOUNDARY    1:     35.00000     M3/S  ( >0 : ENTERING  <0 : EXITING )
     FLUX BOUNDARY    2:    -35.13359     M3/S  ( >0 : ENTERING  <0 : EXITING )
     RELATIVE ERROR IN VOLUME AT T =       0.1650E+05 S :   -0.5055904E-14

================================================================================
 ITERATION     1600    TIME:  4 H 36 MIN  40.0000 S   (    16600.0000 S)
--------------------------------------------------------------------------------
                    DIFFUSION-PROPAGATION STEP
 CVTRVF_NERD_2 (SCHEME 13 OR 14):  17 ITERATIONS
 GRACJG (BIEF) :        3 ITERATIONS, ABSOLUTE PRECISION:   0.2522334E-04
 POSITIVE DEPTHS OBTAINED IN    17 ITERATIONS
--------------------------------------------------------------------------------
                          K-EPSILON MODEL
 CVTRVF_NERD_2 (SCHEME 13 OR 14):  17 ITERATIONS
 GRACJG (BIEF) :        2 ITERATIONS, RELATIVE PRECISION:   0.1696922E-09
 GRACJG (BIEF) :        2 ITERATIONS, RELATIVE PRECISION:   0.1839729E-09
--------------------------------------------------------------------------------
                       BALANCE OF WATER VOLUME
     VOLUME IN THE DOMAIN :    268821.6     M3
     FLUX BOUNDARY    1:     35.00000     M3/S  ( >0 : ENTERING  <0 : EXITING )
     FLUX BOUNDARY    2:    -35.08252     M3/S  ( >0 : ENTERING  <0 : EXITING )
     RELATIVE ERROR IN VOLUME AT T =       0.1660E+05 S :   -0.4462263E-14

================================================================================
 ITERATION     1700    TIME:  4 H 38 MIN  20.0000 S   (    16700.0000 S)
--------------------------------------------------------------------------------
                    DIFFUSION-PROPAGATION STEP
 CVTRVF_NERD_2 (SCHEME 13 OR 14):  17 ITERATIONS
 GRACJG (BIEF) :        3 ITERATIONS, ABSOLUTE PRECISION:   0.2520833E-04
 POSITIVE DEPTHS OBTAINED IN    17 ITERATIONS
--------------------------------------------------------------------------------
                          K-EPSILON MODEL
 CVTRVF_NERD_2 (SCHEME 13 OR 14):  17 ITERATIONS
 GRACJG (BIEF) :        2 ITERATIONS, RELATIVE PRECISION:   0.1328091E-09
 GRACJG (BIEF) :        2 ITERATIONS, RELATIVE PRECISION:   0.1832766E-09
--------------------------------------------------------------------------------
                       BALANCE OF WATER VOLUME
     VOLUME IN THE DOMAIN :    268815.6     M3
     FLUX BOUNDARY    1:     35.00001     M3/S  ( >0 : ENTERING  <0 : EXITING )
     FLUX BOUNDARY    2:    -35.03937     M3/S  ( >0 : ENTERING  <0 : EXITING )
     RELATIVE ERROR IN VOLUME AT T =       0.1670E+05 S :    0.5726463E-14

================================================================================
 ITERATION     1800    TIME:  4 H 40 MIN   0.0000 S   (    16800.0000 S)
--------------------------------------------------------------------------------
                    DIFFUSION-PROPAGATION STEP
 CVTRVF_NERD_2 (SCHEME 13 OR 14):  17 ITERATIONS
 GRACJG (BIEF) :        3 ITERATIONS, ABSOLUTE PRECISION:   0.2519636E-04
 POSITIVE DEPTHS OBTAINED IN    17 ITERATIONS
--------------------------------------------------------------------------------
                          K-EPSILON MODEL
 CVTRVF_NERD_2 (SCHEME 13 OR 14):  17 ITERATIONS
 GRACJG (BIEF) :        2 ITERATIONS, RELATIVE PRECISION:   0.1127959E-09
 GRACJG (BIEF) :        2 ITERATIONS, RELATIVE PRECISION:   0.1828171E-09
--------------------------------------------------------------------------------
                       BALANCE OF WATER VOLUME
     VOLUME IN THE DOMAIN :    268813.4     M3
     FLUX BOUNDARY    1:     35.00000     M3/S  ( >0 : ENTERING  <0 : EXITING )
     FLUX BOUNDARY    2:    -35.00465     M3/S  ( >0 : ENTERING  <0 : EXITING )
     RELATIVE ERROR IN VOLUME AT T =       0.1680E+05 S :    0.8895349E-15

================================================================================
 ITERATION     1900    TIME:  4 H 41 MIN  40.0000 S   (    16900.0000 S)
--------------------------------------------------------------------------------
                    DIFFUSION-PROPAGATION STEP
 CVTRVF_NERD_2 (SCHEME 13 OR 14):  17 ITERATIONS
 GRACJG (BIEF) :        3 ITERATIONS, ABSOLUTE PRECISION:   0.2519870E-04
 POSITIVE DEPTHS OBTAINED IN    17 ITERATIONS
--------------------------------------------------------------------------------
                          K-EPSILON MODEL
 CVTRVF_NERD_2 (SCHEME 13 OR 14):  17 ITERATIONS
 GRACJG (BIEF) :        2 ITERATIONS, RELATIVE PRECISION:   0.1102971E-09
 GRACJG (BIEF) :        2 ITERATIONS, RELATIVE PRECISION:   0.1819190E-09
--------------------------------------------------------------------------------
                       BALANCE OF WATER VOLUME
     VOLUME IN THE DOMAIN :    268814.4     M3
     FLUX BOUNDARY    1:     35.00000     M3/S  ( >0 : ENTERING  <0 : EXITING )
     FLUX BOUNDARY    2:    -34.97758     M3/S  ( >0 : ENTERING  <0 : EXITING )
     RELATIVE ERROR IN VOLUME AT T =       0.1690E+05 S :   -0.2000435E-14

================================================================================
 ITERATION     2000    TIME:  4 H 43 MIN  20.0000 S   (    17000.0000 S)
--------------------------------------------------------------------------------
                    DIFFUSION-PROPAGATION STEP
 CVTRVF_NERD_2 (SCHEME 13 OR 14):  17 ITERATIONS
 GRACJG (BIEF) :        3 ITERATIONS, ABSOLUTE PRECISION:   0.2519658E-04
 POSITIVE DEPTHS OBTAINED IN    17 ITERATIONS
--------------------------------------------------------------------------------
                          K-EPSILON MODEL
 CVTRVF_NERD_2 (SCHEME 13 OR 14):  17 ITERATIONS
 GRACJG (BIEF) :        2 ITERATIONS, RELATIVE PRECISION:   0.8708824E-10
 GRACJG (BIEF) :        2 ITERATIONS, RELATIVE PRECISION:   0.1813875E-09
--------------------------------------------------------------------------------
                       BALANCE OF WATER VOLUME
     VOLUME IN THE DOMAIN :    268817.7     M3
     FLUX BOUNDARY    1:     35.00000     M3/S  ( >0 : ENTERING  <0 : EXITING )
     FLUX BOUNDARY    2:    -34.95753     M3/S  ( >0 : ENTERING  <0 : EXITING )
     RELATIVE ERROR IN VOLUME AT T =       0.1700E+05 S :   -0.1870576E-14

================================================================================
 ITERATION     2100    TIME:  4 H 45 MIN   0.0000 S   (    17100.0000 S)
--------------------------------------------------------------------------------
                    DIFFUSION-PROPAGATION STEP
 CVTRVF_NERD_2 (SCHEME 13 OR 14):  17 ITERATIONS
 GRACJG (BIEF) :        3 ITERATIONS, ABSOLUTE PRECISION:   0.2519850E-04
 POSITIVE DEPTHS OBTAINED IN    17 ITERATIONS
--------------------------------------------------------------------------------
                          K-EPSILON MODEL
 CVTRVF_NERD_2 (SCHEME 13 OR 14):  17 ITERATIONS
 GRACJG (BIEF) :        2 ITERATIONS, RELATIVE PRECISION:   0.7848907E-10
 GRACJG (BIEF) :        2 ITERATIONS, RELATIVE PRECISION:   0.1810433E-09
--------------------------------------------------------------------------------
                       BALANCE OF WATER VOLUME
     VOLUME IN THE DOMAIN :    268822.7     M3
     FLUX BOUNDARY    1:     35.00000     M3/S  ( >0 : ENTERING  <0 : EXITING )
     FLUX BOUNDARY    2:    -34.94338     M3/S  ( >0 : ENTERING  <0 : EXITING )
     RELATIVE ERROR IN VOLUME AT T =       0.1710E+05 S :    0.2889323E-14

================================================================================
 ITERATION     2200    TIME:  4 H 46 MIN  40.0000 S   (    17200.0000 S)
--------------------------------------------------------------------------------
                    DIFFUSION-PROPAGATION STEP
 CVTRVF_NERD_2 (SCHEME 13 OR 14):  17 ITERATIONS
 GRACJG (BIEF) :        3 ITERATIONS, ABSOLUTE PRECISION:   0.2519704E-04
 POSITIVE DEPTHS OBTAINED IN    17 ITERATIONS
--------------------------------------------------------------------------------
                          K-EPSILON MODEL
 CVTRVF_NERD_2 (SCHEME 13 OR 14):  17 ITERATIONS
 GRACJG (BIEF) :        2 ITERATIONS, RELATIVE PRECISION:   0.8196584E-10
 GRACJG (BIEF) :        2 ITERATIONS, RELATIVE PRECISION:   0.1804169E-09
--------------------------------------------------------------------------------
                       BALANCE OF WATER VOLUME
     VOLUME IN THE DOMAIN :    268828.9     M3
     FLUX BOUNDARY    1:     35.00000     M3/S  ( >0 : ENTERING  <0 : EXITING )
     FLUX BOUNDARY    2:    -34.93418     M3/S  ( >0 : ENTERING  <0 : EXITING )
     RELATIVE ERROR IN VOLUME AT T =       0.1720E+05 S :    0.7367653E-15

================================================================================
 ITERATION     2300    TIME:  4 H 48 MIN  20.0000 S   (    17300.0000 S)
--------------------------------------------------------------------------------
                    DIFFUSION-PROPAGATION STEP
 CVTRVF_NERD_2 (SCHEME 13 OR 14):  17 ITERATIONS
 GRACJG (BIEF) :        3 ITERATIONS, ABSOLUTE PRECISION:   0.2519617E-04
 POSITIVE DEPTHS OBTAINED IN    17 ITERATIONS
--------------------------------------------------------------------------------
                          K-EPSILON MODEL
 CVTRVF_NERD_2 (SCHEME 13 OR 14):  17 ITERATIONS
 GRACJG (BIEF) :        2 ITERATIONS, RELATIVE PRECISION:   0.6708276E-10
 GRACJG (BIEF) :        2 ITERATIONS, RELATIVE PRECISION:   0.1800366E-09
--------------------------------------------------------------------------------
                       BALANCE OF WATER VOLUME
     VOLUME IN THE DOMAIN :    268835.8     M3
     FLUX BOUNDARY    1:     35.00000     M3/S  ( >0 : ENTERING  <0 : EXITING )
     FLUX BOUNDARY    2:    -34.92901     M3/S  ( >0 : ENTERING  <0 : EXITING )
     RELATIVE ERROR IN VOLUME AT T =       0.1730E+05 S :   -0.5705259E-15

================================================================================
 ITERATION     2400    TIME:  4 H 50 MIN   0.0000 S   (    17400.0000 S)
--------------------------------------------------------------------------------
                    DIFFUSION-PROPAGATION STEP
 CVTRVF_NERD_2 (SCHEME 13 OR 14):  17 ITERATIONS
 GRACJG (BIEF) :        3 ITERATIONS, ABSOLUTE PRECISION:   0.2519830E-04
 POSITIVE DEPTHS OBTAINED IN    17 ITERATIONS
--------------------------------------------------------------------------------
                          K-EPSILON MODEL
 CVTRVF_NERD_2 (SCHEME 13 OR 14):  17 ITERATIONS
 GRACJG (BIEF) :        2 ITERATIONS, RELATIVE PRECISION:   0.6274770E-10
 GRACJG (BIEF) :        2 ITERATIONS, RELATIVE PRECISION:   0.1797722E-09
--------------------------------------------------------------------------------
                       BALANCE OF WATER VOLUME
     VOLUME IN THE DOMAIN :    268843.0     M3
     FLUX BOUNDARY    1:     35.00000     M3/S  ( >0 : ENTERING  <0 : EXITING )
     FLUX BOUNDARY    2:    -34.92699     M3/S  ( >0 : ENTERING  <0 : EXITING )
     RELATIVE ERROR IN VOLUME AT T =       0.1740E+05 S :    0.1284376E-14

================================================================================
 ITERATION     2500    TIME:  4 H 51 MIN  40.0000 S   (    17500.0000 S)
--------------------------------------------------------------------------------
                    DIFFUSION-PROPAGATION STEP
 CVTRVF_NERD_2 (SCHEME 13 OR 14):  17 ITERATIONS
 GRACJG (BIEF) :        3 ITERATIONS, ABSOLUTE PRECISION:   0.2519888E-04
 POSITIVE DEPTHS OBTAINED IN    17 ITERATIONS
--------------------------------------------------------------------------------
                          K-EPSILON MODEL
 CVTRVF_NERD_2 (SCHEME 13 OR 14):  17 ITERATIONS
 GRACJG (BIEF) :        2 ITERATIONS, RELATIVE PRECISION:   0.6643311E-10
 GRACJG (BIEF) :        2 ITERATIONS, RELATIVE PRECISION:   0.1794007E-09
--------------------------------------------------------------------------------
                       BALANCE OF WATER VOLUME
     VOLUME IN THE DOMAIN :    268850.3     M3
     FLUX BOUNDARY    1:     35.00000     M3/S  ( >0 : ENTERING  <0 : EXITING )
     FLUX BOUNDARY    2:    -34.92741     M3/S  ( >0 : ENTERING  <0 : EXITING )
     RELATIVE ERROR IN VOLUME AT T =       0.1750E+05 S :    0.3412980E-14

================================================================================
 ITERATION     2600    TIME:  4 H 53 MIN  20.0000 S   (    17600.0000 S)
--------------------------------------------------------------------------------
                    DIFFUSION-PROPAGATION STEP
 CVTRVF_NERD_2 (SCHEME 13 OR 14):  17 ITERATIONS
 GRACJG (BIEF) :        3 ITERATIONS, ABSOLUTE PRECISION:   0.2520124E-04
 POSITIVE DEPTHS OBTAINED IN    17 ITERATIONS
--------------------------------------------------------------------------------
                          K-EPSILON MODEL
 CVTRVF_NERD_2 (SCHEME 13 OR 14):  17 ITERATIONS
 GRACJG (BIEF) :        2 ITERATIONS, RELATIVE PRECISION:   0.5615387E-10
 GRACJG (BIEF) :        2 ITERATIONS, RELATIVE PRECISION:   0.1833611E-09
--------------------------------------------------------------------------------
                       BALANCE OF WATER VOLUME
     VOLUME IN THE DOMAIN :    268857.4     M3
     FLUX BOUNDARY    1:     35.00000     M3/S  ( >0 : ENTERING  <0 : EXITING )
     FLUX BOUNDARY    2:    -34.92959     M3/S  ( >0 : ENTERING  <0 : EXITING )
     RELATIVE ERROR IN VOLUME AT T =       0.1760E+05 S :   -0.3683514E-14

================================================================================
 ITERATION     2700    TIME:  4 H 55 MIN   0.0000 S   (    17700.0000 S)
--------------------------------------------------------------------------------
                    DIFFUSION-PROPAGATION STEP
 CVTRVF_NERD_2 (SCHEME 13 OR 14):  17 ITERATIONS
 GRACJG (BIEF) :        3 ITERATIONS, ABSOLUTE PRECISION:   0.2520369E-04
 POSITIVE DEPTHS OBTAINED IN    17 ITERATIONS
--------------------------------------------------------------------------------
                          K-EPSILON MODEL
 CVTRVF_NERD_2 (SCHEME 13 OR 14):  17 ITERATIONS
 GRACJG (BIEF) :        2 ITERATIONS, RELATIVE PRECISION:   0.5340794E-10
 GRACJG (BIEF) :        2 ITERATIONS, RELATIVE PRECISION:   0.1831596E-09
--------------------------------------------------------------------------------
                       BALANCE OF WATER VOLUME
     VOLUME IN THE DOMAIN :    268864.3     M3
     FLUX BOUNDARY    1:     35.00000     M3/S  ( >0 : ENTERING  <0 : EXITING )
     FLUX BOUNDARY    2:    -34.93302     M3/S  ( >0 : ENTERING  <0 : EXITING )
     RELATIVE ERROR IN VOLUME AT T =       0.1770E+05 S :    0.5653383E-15

================================================================================
 ITERATION     2800    TIME:  4 H 56 MIN  40.0000 S   (    17800.0000 S)
--------------------------------------------------------------------------------
                    DIFFUSION-PROPAGATION STEP
 CVTRVF_NERD_2 (SCHEME 13 OR 14):  17 ITERATIONS
 GRACJG (BIEF) :        3 ITERATIONS, ABSOLUTE PRECISION:   0.2520606E-04
 POSITIVE DEPTHS OBTAINED IN    17 ITERATIONS
--------------------------------------------------------------------------------
                          K-EPSILON MODEL
 CVTRVF_NERD_2 (SCHEME 13 OR 14):  17 ITERATIONS
 GRACJG (BIEF) :        2 ITERATIONS, RELATIVE PRECISION:   0.5799092E-10
 GRACJG (BIEF) :        2 ITERATIONS, RELATIVE PRECISION:   0.1829890E-09
--------------------------------------------------------------------------------
                       BALANCE OF WATER VOLUME
     VOLUME IN THE DOMAIN :    268870.8     M3
     FLUX BOUNDARY    1:     35.00000     M3/S  ( >0 : ENTERING  <0 : EXITING )
     FLUX BOUNDARY    2:    -34.93728     M3/S  ( >0 : ENTERING  <0 : EXITING )
     RELATIVE ERROR IN VOLUME AT T =       0.1780E+05 S :    0.3298873E-14

================================================================================
 ITERATION     2900    TIME:  4 H 58 MIN  20.0000 S   (    17900.0000 S)
--------------------------------------------------------------------------------
                    DIFFUSION-PROPAGATION STEP
 CVTRVF_NERD_2 (SCHEME 13 OR 14):  17 ITERATIONS
 GRACJG (BIEF) :        3 ITERATIONS, ABSOLUTE PRECISION:   0.2520853E-04
 POSITIVE DEPTHS OBTAINED IN    17 ITERATIONS
--------------------------------------------------------------------------------
                          K-EPSILON MODEL
 CVTRVF_NERD_2 (SCHEME 13 OR 14):  17 ITERATIONS
 GRACJG (BIEF) :        2 ITERATIONS, RELATIVE PRECISION:   0.4940569E-10
 GRACJG (BIEF) :        2 ITERATIONS, RELATIVE PRECISION:   0.1828549E-09
--------------------------------------------------------------------------------
                       BALANCE OF WATER VOLUME
     VOLUME IN THE DOMAIN :    268876.8     M3
     FLUX BOUNDARY    1:     35.00000     M3/S  ( >0 : ENTERING  <0 : EXITING )
     FLUX BOUNDARY    2:    -34.94200     M3/S  ( >0 : ENTERING  <0 : EXITING )
     RELATIVE ERROR IN VOLUME AT T =       0.1790E+05 S :   -0.6184818E-15

================================================================================
 ITERATION     3000    TIME:  5 H  0 MIN   0.0000 S   (    18000.0000 S)
--------------------------------------------------------------------------------
                    DIFFUSION-PROPAGATION STEP
 CVTRVF_NERD_2 (SCHEME 13 OR 14):  17 ITERATIONS
 GRACJG (BIEF) :        3 ITERATIONS, ABSOLUTE PRECISION:   0.2521042E-04
 POSITIVE DEPTHS OBTAINED IN    17 ITERATIONS
--------------------------------------------------------------------------------
                          K-EPSILON MODEL
 CVTRVF_NERD_2 (SCHEME 13 OR 14):  17 ITERATIONS
 GRACJG (BIEF) :        2 ITERATIONS, RELATIVE PRECISION:   0.4807181E-10
 GRACJG (BIEF) :        2 ITERATIONS, RELATIVE PRECISION:   0.1827652E-09
--------------------------------------------------------------------------------
                       BALANCE OF WATER VOLUME
     VOLUME IN THE DOMAIN :    268882.4     M3
     FLUX BOUNDARY    1:     35.00000     M3/S  ( >0 : ENTERING  <0 : EXITING )
     FLUX BOUNDARY    2:    -34.94695     M3/S  ( >0 : ENTERING  <0 : EXITING )
     RELATIVE ERROR IN VOLUME AT T =       0.1800E+05 S :    0.2394176E-15

================================================================================
 ITERATION     3100    TIME:  5 H  1 MIN  40.0000 S   (    18100.0000 S)
--------------------------------------------------------------------------------
                    DIFFUSION-PROPAGATION STEP
 CVTRVF_NERD_2 (SCHEME 13 OR 14):  17 ITERATIONS
 GRACJG (BIEF) :        3 ITERATIONS, ABSOLUTE PRECISION:   0.2521327E-04
 POSITIVE DEPTHS OBTAINED IN    17 ITERATIONS
--------------------------------------------------------------------------------
                          K-EPSILON MODEL
 CVTRVF_NERD_2 (SCHEME 13 OR 14):  17 ITERATIONS
 GRACJG (BIEF) :        2 ITERATIONS, RELATIVE PRECISION:   0.5567533E-10
 GRACJG (BIEF) :        2 ITERATIONS, RELATIVE PRECISION:   0.1826910E-09
--------------------------------------------------------------------------------
                       BALANCE OF WATER VOLUME
     VOLUME IN THE DOMAIN :    268887.4     M3
     FLUX BOUNDARY    1:     35.00000     M3/S  ( >0 : ENTERING  <0 : EXITING )
     FLUX BOUNDARY    2:    -34.95191     M3/S  ( >0 : ENTERING  <0 : EXITING )
     RELATIVE ERROR IN VOLUME AT T =       0.1810E+05 S :    0.3808914E-14

================================================================================
 ITERATION     3200    TIME:  5 H  3 MIN  20.0000 S   (    18200.0000 S)
--------------------------------------------------------------------------------
                    DIFFUSION-PROPAGATION STEP
 CVTRVF_NERD_2 (SCHEME 13 OR 14):  17 ITERATIONS
 GRACJG (BIEF) :        3 ITERATIONS, ABSOLUTE PRECISION:   0.2521546E-04
 POSITIVE DEPTHS OBTAINED IN    17 ITERATIONS
--------------------------------------------------------------------------------
                          K-EPSILON MODEL
 CVTRVF_NERD_2 (SCHEME 13 OR 14):  17 ITERATIONS
 GRACJG (BIEF) :        2 ITERATIONS, RELATIVE PRECISION:   0.4707193E-10
 GRACJG (BIEF) :        2 ITERATIONS, RELATIVE PRECISION:   0.1826232E-09
--------------------------------------------------------------------------------
                       BALANCE OF WATER VOLUME
     VOLUME IN THE DOMAIN :    268892.0     M3
     FLUX BOUNDARY    1:     35.00000     M3/S  ( >0 : ENTERING  <0 : EXITING )
     FLUX BOUNDARY    2:    -34.95675     M3/S  ( >0 : ENTERING  <0 : EXITING )
     RELATIVE ERROR IN VOLUME AT T =       0.1820E+05 S :   -0.1885121E-14

================================================================================
 ITERATION     3300    TIME:  5 H  5 MIN   0.0000 S   (    18300.0000 S)
--------------------------------------------------------------------------------
                    DIFFUSION-PROPAGATION STEP
 CVTRVF_NERD_2 (SCHEME 13 OR 14):  17 ITERATIONS
 GRACJG (BIEF) :        3 ITERATIONS, ABSOLUTE PRECISION:   0.2521806E-04
 POSITIVE DEPTHS OBTAINED IN    17 ITERATIONS
--------------------------------------------------------------------------------
                          K-EPSILON MODEL
 CVTRVF_NERD_2 (SCHEME 13 OR 14):  17 ITERATIONS
 GRACJG (BIEF) :        2 ITERATIONS, RELATIVE PRECISION:   0.4712708E-10
 GRACJG (BIEF) :        2 ITERATIONS, RELATIVE PRECISION:   0.1825712E-09
--------------------------------------------------------------------------------
                       BALANCE OF WATER VOLUME
     VOLUME IN THE DOMAIN :    268896.1     M3
     FLUX BOUNDARY    1:     35.00000     M3/S  ( >0 : ENTERING  <0 : EXITING )
     FLUX BOUNDARY    2:    -34.96137     M3/S  ( >0 : ENTERING  <0 : EXITING )
     RELATIVE ERROR IN VOLUME AT T =       0.1830E+05 S :    0.2047048E-14

================================================================================
 ITERATION     3400    TIME:  5 H  6 MIN  40.0000 S   (    18400.0000 S)
--------------------------------------------------------------------------------
                    DIFFUSION-PROPAGATION STEP
 CVTRVF_NERD_2 (SCHEME 13 OR 14):  17 ITERATIONS
 GRACJG (BIEF) :        3 ITERATIONS, ABSOLUTE PRECISION:   0.2522116E-04
 POSITIVE DEPTHS OBTAINED IN    17 ITERATIONS
--------------------------------------------------------------------------------
                          K-EPSILON MODEL
 CVTRVF_NERD_2 (SCHEME 13 OR 14):  17 ITERATIONS
 GRACJG (BIEF) :        2 ITERATIONS, RELATIVE PRECISION:   0.5793229E-10
 GRACJG (BIEF) :        2 ITERATIONS, RELATIVE PRECISION:   0.1825449E-09
--------------------------------------------------------------------------------
                       BALANCE OF WATER VOLUME
     VOLUME IN THE DOMAIN :    268899.7     M3
     FLUX BOUNDARY    1:     35.00000     M3/S  ( >0 : ENTERING  <0 : EXITING )
     FLUX BOUNDARY    2:    -34.96569     M3/S  ( >0 : ENTERING  <0 : EXITING )
     RELATIVE ERROR IN VOLUME AT T =       0.1840E+05 S :   -0.2545643E-14

================================================================================
 ITERATION     3500    TIME:  5 H  8 MIN  20.0000 S   (    18500.0000 S)
--------------------------------------------------------------------------------
                    DIFFUSION-PROPAGATION STEP
 CVTRVF_NERD_2 (SCHEME 13 OR 14):  17 ITERATIONS
 GRACJG (BIEF) :        3 ITERATIONS, ABSOLUTE PRECISION:   0.2522436E-04
 POSITIVE DEPTHS OBTAINED IN    17 ITERATIONS
--------------------------------------------------------------------------------
                          K-EPSILON MODEL
 CVTRVF_NERD_2 (SCHEME 13 OR 14):  17 ITERATIONS
 GRACJG (BIEF) :        2 ITERATIONS, RELATIVE PRECISION:   0.4819400E-10
 GRACJG (BIEF) :        2 ITERATIONS, RELATIVE PRECISION:   0.1824948E-09
--------------------------------------------------------------------------------
                       BALANCE OF WATER VOLUME
     VOLUME IN THE DOMAIN :    268903.0     M3
     FLUX BOUNDARY    1:     35.00000     M3/S  ( >0 : ENTERING  <0 : EXITING )
     FLUX BOUNDARY    2:    -34.96969     M3/S  ( >0 : ENTERING  <0 : EXITING )
     RELATIVE ERROR IN VOLUME AT T =       0.1850E+05 S :   -0.2637065E-14

================================================================================
 ITERATION     3600    TIME:  5 H 10 MIN   0.0000 S   (    18600.0000 S)
--------------------------------------------------------------------------------
                    DIFFUSION-PROPAGATION STEP
 CVTRVF_NERD_2 (SCHEME 13 OR 14):  17 ITERATIONS
 GRACJG (BIEF) :        3 ITERATIONS, ABSOLUTE PRECISION:   0.2522761E-04
 POSITIVE DEPTHS OBTAINED IN    17 ITERATIONS
--------------------------------------------------------------------------------
                          K-EPSILON MODEL
 CVTRVF_NERD_2 (SCHEME 13 OR 14):  17 ITERATIONS
 GRACJG (BIEF) :        2 ITERATIONS, RELATIVE PRECISION:   0.4870439E-10
 GRACJG (BIEF) :        2 ITERATIONS, RELATIVE PRECISION:   0.1824813E-09
--------------------------------------------------------------------------------
                       BALANCE OF WATER VOLUME
     VOLUME IN THE DOMAIN :    268905.8     M3
     FLUX BOUNDARY    1:     35.00000     M3/S  ( >0 : ENTERING  <0 : EXITING )
     FLUX BOUNDARY    2:    -34.97334     M3/S  ( >0 : ENTERING  <0 : EXITING )
     RELATIVE ERROR IN VOLUME AT T =       0.1860E+05 S :    0.3038965E-15

================================================================================
 ITERATION     3700    TIME:  5 H 11 MIN  40.0000 S   (    18700.0000 S)
--------------------------------------------------------------------------------
                    DIFFUSION-PROPAGATION STEP
 CVTRVF_NERD_2 (SCHEME 13 OR 14):  17 ITERATIONS
 GRACJG (BIEF) :        3 ITERATIONS, ABSOLUTE PRECISION:   0.2523098E-04
 POSITIVE DEPTHS OBTAINED IN    17 ITERATIONS
--------------------------------------------------------------------------------
                          K-EPSILON MODEL
 CVTRVF_NERD_2 (SCHEME 13 OR 14):  17 ITERATIONS
 GRACJG (BIEF) :        2 ITERATIONS, RELATIVE PRECISION:   0.6083998E-10
 GRACJG (BIEF) :        2 ITERATIONS, RELATIVE PRECISION:   0.1824663E-09
--------------------------------------------------------------------------------
                       BALANCE OF WATER VOLUME
     VOLUME IN THE DOMAIN :    268908.3     M3
     FLUX BOUNDARY    1:     35.00000     M3/S  ( >0 : ENTERING  <0 : EXITING )
     FLUX BOUNDARY    2:    -34.97664     M3/S  ( >0 : ENTERING  <0 : EXITING )
     RELATIVE ERROR IN VOLUME AT T =       0.1870E+05 S :   -0.9317626E-15

================================================================================
 ITERATION     3800    TIME:  5 H 13 MIN  20.0000 S   (    18800.0000 S)
--------------------------------------------------------------------------------
                    DIFFUSION-PROPAGATION STEP
 CVTRVF_NERD_2 (SCHEME 13 OR 14):  17 ITERATIONS
 GRACJG (BIEF) :        3 ITERATIONS, ABSOLUTE PRECISION:   0.2523449E-04
 POSITIVE DEPTHS OBTAINED IN    17 ITERATIONS
--------------------------------------------------------------------------------
                          K-EPSILON MODEL
 CVTRVF_NERD_2 (SCHEME 13 OR 14):  17 ITERATIONS
 GRACJG (BIEF) :        2 ITERATIONS, RELATIVE PRECISION:   0.4979367E-10
 GRACJG (BIEF) :        2 ITERATIONS, RELATIVE PRECISION:   0.1824457E-09
--------------------------------------------------------------------------------
                       BALANCE OF WATER VOLUME
     VOLUME IN THE DOMAIN :    268910.5     M3
     FLUX BOUNDARY    1:     35.00000     M3/S  ( >0 : ENTERING  <0 : EXITING )
     FLUX BOUNDARY    2:    -34.97960     M3/S  ( >0 : ENTERING  <0 : EXITING )
     RELATIVE ERROR IN VOLUME AT T =       0.1880E+05 S :   -0.2918158E-14

================================================================================
 ITERATION     3900    TIME:  5 H 15 MIN   0.0000 S   (    18900.0000 S)
--------------------------------------------------------------------------------
                    DIFFUSION-PROPAGATION STEP
 CVTRVF_NERD_2 (SCHEME 13 OR 14):  17 ITERATIONS
 GRACJG (BIEF) :        3 ITERATIONS, ABSOLUTE PRECISION:   0.2523800E-04
 POSITIVE DEPTHS OBTAINED IN    17 ITERATIONS
--------------------------------------------------------------------------------
                          K-EPSILON MODEL
 CVTRVF_NERD_2 (SCHEME 13 OR 14):  17 ITERATIONS
 GRACJG (BIEF) :        2 ITERATIONS, RELATIVE PRECISION:   0.5007922E-10
 GRACJG (BIEF) :        2 ITERATIONS, RELATIVE PRECISION:   0.1824349E-09
--------------------------------------------------------------------------------
                       BALANCE OF WATER VOLUME
     VOLUME IN THE DOMAIN :    268912.4     M3
     FLUX BOUNDARY    1:     35.00000     M3/S  ( >0 : ENTERING  <0 : EXITING )
     FLUX BOUNDARY    2:    -34.98223     M3/S  ( >0 : ENTERING  <0 : EXITING )
     RELATIVE ERROR IN VOLUME AT T =       0.1890E+05 S :    0.1841117E-14

================================================================================
 ITERATION     4000    TIME:  5 H 16 MIN  40.0000 S   (    19000.0000 S)
--------------------------------------------------------------------------------
                    DIFFUSION-PROPAGATION STEP
 CVTRVF_NERD_2 (SCHEME 13 OR 14):  17 ITERATIONS
 GRACJG (BIEF) :        3 ITERATIONS, ABSOLUTE PRECISION:   0.2524161E-04
 POSITIVE DEPTHS OBTAINED IN    17 ITERATIONS
--------------------------------------------------------------------------------
                          K-EPSILON MODEL
 CVTRVF_NERD_2 (SCHEME 13 OR 14):  17 ITERATIONS
 GRACJG (BIEF) :        2 ITERATIONS, RELATIVE PRECISION:   0.6243279E-10
 GRACJG (BIEF) :        2 ITERATIONS, RELATIVE PRECISION:   0.1824453E-09
--------------------------------------------------------------------------------
                       BALANCE OF WATER VOLUME
     VOLUME IN THE DOMAIN :    268914.0     M3
     FLUX BOUNDARY    1:     35.00000     M3/S  ( >0 : ENTERING  <0 : EXITING )
     FLUX BOUNDARY    2:    -34.98456     M3/S  ( >0 : ENTERING  <0 : EXITING )
     RELATIVE ERROR IN VOLUME AT T =       0.1900E+05 S :    0.1646555E-14

================================================================================
 ITERATION     4100    TIME:  5 H 18 MIN  20.0000 S   (    19100.0000 S)
--------------------------------------------------------------------------------
                    DIFFUSION-PROPAGATION STEP
 CVTRVF_NERD_2 (SCHEME 13 OR 14):  17 ITERATIONS
 GRACJG (BIEF) :        3 ITERATIONS, ABSOLUTE PRECISION:   0.2524536E-04
 POSITIVE DEPTHS OBTAINED IN    17 ITERATIONS
--------------------------------------------------------------------------------
                          K-EPSILON MODEL
 CVTRVF_NERD_2 (SCHEME 13 OR 14):  17 ITERATIONS
 GRACJG (BIEF) :        2 ITERATIONS, RELATIVE PRECISION:   0.5066175E-10
 GRACJG (BIEF) :        2 ITERATIONS, RELATIVE PRECISION:   0.1824217E-09
--------------------------------------------------------------------------------
                       BALANCE OF WATER VOLUME
     VOLUME IN THE DOMAIN :    268915.5     M3
     FLUX BOUNDARY    1:     35.00000     M3/S  ( >0 : ENTERING  <0 : EXITING )
     FLUX BOUNDARY    2:    -34.98661     M3/S  ( >0 : ENTERING  <0 : EXITING )
     RELATIVE ERROR IN VOLUME AT T =       0.1910E+05 S :   -0.4829246E-14

================================================================================
 ITERATION     4200    TIME:  5 H 20 MIN   0.0000 S   (    19200.0000 S)
--------------------------------------------------------------------------------
                    DIFFUSION-PROPAGATION STEP
 CVTRVF_NERD_2 (SCHEME 13 OR 14):  17 ITERATIONS
 GRACJG (BIEF) :        3 ITERATIONS, ABSOLUTE PRECISION:   0.2524904E-04
 POSITIVE DEPTHS OBTAINED IN    17 ITERATIONS
--------------------------------------------------------------------------------
                          K-EPSILON MODEL
 CVTRVF_NERD_2 (SCHEME 13 OR 14):  17 ITERATIONS
 GRACJG (BIEF) :        2 ITERATIONS, RELATIVE PRECISION:   0.5067830E-10
 GRACJG (BIEF) :        2 ITERATIONS, RELATIVE PRECISION:   0.1824318E-09
--------------------------------------------------------------------------------
                       BALANCE OF WATER VOLUME
     VOLUME IN THE DOMAIN :    268916.7     M3
     FLUX BOUNDARY    1:     35.00000     M3/S  ( >0 : ENTERING  <0 : EXITING )
     FLUX BOUNDARY    2:    -34.98841     M3/S  ( >0 : ENTERING  <0 : EXITING )
     RELATIVE ERROR IN VOLUME AT T =       0.1920E+05 S :    0.4823093E-14

================================================================================
 ITERATION     4300    TIME:  5 H 21 MIN  40.0000 S   (    19300.0000 S)
--------------------------------------------------------------------------------
                    DIFFUSION-PROPAGATION STEP
 CVTRVF_NERD_2 (SCHEME 13 OR 14):  17 ITERATIONS
 GRACJG (BIEF) :        3 ITERATIONS, ABSOLUTE PRECISION:   0.2525299E-04
 POSITIVE DEPTHS OBTAINED IN    17 ITERATIONS
--------------------------------------------------------------------------------
                          K-EPSILON MODEL
 CVTRVF_NERD_2 (SCHEME 13 OR 14):  17 ITERATIONS
 GRACJG (BIEF) :        2 ITERATIONS, RELATIVE PRECISION:   0.6255245E-10
 GRACJG (BIEF) :        2 ITERATIONS, RELATIVE PRECISION:   0.1824332E-09
--------------------------------------------------------------------------------
                       BALANCE OF WATER VOLUME
     VOLUME IN THE DOMAIN :    268917.8     M3
     FLUX BOUNDARY    1:     35.00000     M3/S  ( >0 : ENTERING  <0 : EXITING )
     FLUX BOUNDARY    2:    -34.98997     M3/S  ( >0 : ENTERING  <0 : EXITING )
     RELATIVE ERROR IN VOLUME AT T =       0.1930E+05 S :   -0.8309444E-14

[...]
     FLUX BOUNDARY    2:    -34.99959     M3/S  ( >0 : ENTERING  <0 : EXITING )
     RELATIVE ERROR IN VOLUME AT T =       0.2340E+05 S :    0.1937595E-14

================================================================================
 ITERATION     8500    TIME:  6 H 31 MIN  40.0000 S   (    23500.0000 S)
--------------------------------------------------------------------------------
                    DIFFUSION-PROPAGATION STEP
 CVTRVF_NERD_2 (SCHEME 13 OR 14):  17 ITERATIONS
 GRACJG (BIEF) :        3 ITERATIONS, ABSOLUTE PRECISION:   0.2537005E-04
 POSITIVE DEPTHS OBTAINED IN    17 ITERATIONS
--------------------------------------------------------------------------------
                          K-EPSILON MODEL
 CVTRVF_NERD_2 (SCHEME 13 OR 14):  17 ITERATIONS
 GRACJG (BIEF) :        2 ITERATIONS, RELATIVE PRECISION:   0.4674606E-11
 GRACJG (BIEF) :        2 ITERATIONS, RELATIVE PRECISION:   0.1823499E-09
--------------------------------------------------------------------------------
                       BALANCE OF WATER VOLUME
     VOLUME IN THE DOMAIN :    268925.9     M3
     FLUX BOUNDARY    1:     35.00000     M3/S  ( >0 : ENTERING  <0 : EXITING )
     FLUX BOUNDARY    2:    -34.99960     M3/S  ( >0 : ENTERING  <0 : EXITING )
     RELATIVE ERROR IN VOLUME AT T =       0.2350E+05 S :   -0.4822717E-15

================================================================================
 ITERATION     8600    TIME:  6 H 33 MIN  20.0000 S   (    23600.0000 S)
--------------------------------------------------------------------------------
                    DIFFUSION-PROPAGATION STEP
 CVTRVF_NERD_2 (SCHEME 13 OR 14):  17 ITERATIONS
 GRACJG (BIEF) :        3 ITERATIONS, ABSOLUTE PRECISION:   0.2537147E-04
 POSITIVE DEPTHS OBTAINED IN    17 ITERATIONS
--------------------------------------------------------------------------------
                          K-EPSILON MODEL
 CVTRVF_NERD_2 (SCHEME 13 OR 14):  17 ITERATIONS
 GRACJG (BIEF) :        2 ITERATIONS, RELATIVE PRECISION:   0.4207247E-11
 GRACJG (BIEF) :        2 ITERATIONS, RELATIVE PRECISION:   0.1823525E-09
--------------------------------------------------------------------------------
                       BALANCE OF WATER VOLUME
     VOLUME IN THE DOMAIN :    268926.0     M3
     FLUX BOUNDARY    1:     35.00000     M3/S  ( >0 : ENTERING  <0 : EXITING )
     FLUX BOUNDARY    2:    -34.99960     M3/S  ( >0 : ENTERING  <0 : EXITING )
     RELATIVE ERROR IN VOLUME AT T =       0.2360E+05 S :   -0.3849956E-14

================================================================================
 ITERATION     8700    TIME:  6 H 35 MIN   0.0000 S   (    23700.0000 S)
--------------------------------------------------------------------------------
                    DIFFUSION-PROPAGATION STEP
 CVTRVF_NERD_2 (SCHEME 13 OR 14):  17 ITERATIONS
 GRACJG (BIEF) :        3 ITERATIONS, ABSOLUTE PRECISION:   0.2538605E-04
 POSITIVE DEPTHS OBTAINED IN    17 ITERATIONS
--------------------------------------------------------------------------------
                          K-EPSILON MODEL
 CVTRVF_NERD_2 (SCHEME 13 OR 14):  17 ITERATIONS
 GRACJG (BIEF) :        2 ITERATIONS, RELATIVE PRECISION:   0.4031403E-11
 GRACJG (BIEF) :        2 ITERATIONS, RELATIVE PRECISION:   0.1823159E-09
--------------------------------------------------------------------------------
                       BALANCE OF WATER VOLUME
     VOLUME IN THE DOMAIN :    268926.0     M3
     FLUX BOUNDARY    1:     35.00000     M3/S  ( >0 : ENTERING  <0 : EXITING )
     FLUX BOUNDARY    2:    -34.99961     M3/S  ( >0 : ENTERING  <0 : EXITING )
     RELATIVE ERROR IN VOLUME AT T =       0.2370E+05 S :   -0.1743264E-14

================================================================================
 ITERATION     8800    TIME:  6 H 36 MIN  40.0000 S   (    23800.0000 S)
--------------------------------------------------------------------------------
                    DIFFUSION-PROPAGATION STEP
 CVTRVF_NERD_2 (SCHEME 13 OR 14):  17 ITERATIONS
 GRACJG (BIEF) :        3 ITERATIONS, ABSOLUTE PRECISION:   0.2537461E-04
 POSITIVE DEPTHS OBTAINED IN    17 ITERATIONS
--------------------------------------------------------------------------------
                          K-EPSILON MODEL
 CVTRVF_NERD_2 (SCHEME 13 OR 14):  17 ITERATIONS
 GRACJG (BIEF) :        2 ITERATIONS, RELATIVE PRECISION:   0.4179587E-11
 GRACJG (BIEF) :        2 ITERATIONS, RELATIVE PRECISION:   0.1823361E-09
--------------------------------------------------------------------------------
                       BALANCE OF WATER VOLUME
     VOLUME IN THE DOMAIN :    268926.0     M3
     FLUX BOUNDARY    1:     35.00000     M3/S  ( >0 : ENTERING  <0 : EXITING )
     FLUX BOUNDARY    2:    -34.99961     M3/S  ( >0 : ENTERING  <0 : EXITING )
     RELATIVE ERROR IN VOLUME AT T =       0.2380E+05 S :   -0.7104740E-16

================================================================================
 ITERATION     8900    TIME:  6 H 38 MIN  20.0000 S   (    23900.0000 S)
--------------------------------------------------------------------------------
                    DIFFUSION-PROPAGATION STEP
 CVTRVF_NERD_2 (SCHEME 13 OR 14):  17 ITERATIONS
 GRACJG (BIEF) :        3 ITERATIONS, ABSOLUTE PRECISION:   0.2537630E-04
 POSITIVE DEPTHS OBTAINED IN    17 ITERATIONS
--------------------------------------------------------------------------------
                          K-EPSILON MODEL
 CVTRVF_NERD_2 (SCHEME 13 OR 14):  17 ITERATIONS
 GRACJG (BIEF) :        2 ITERATIONS, RELATIVE PRECISION:   0.3745998E-11
 GRACJG (BIEF) :        2 ITERATIONS, RELATIVE PRECISION:   0.1823430E-09
--------------------------------------------------------------------------------
                       BALANCE OF WATER VOLUME
     VOLUME IN THE DOMAIN :    268926.1     M3
     FLUX BOUNDARY    1:     35.00000     M3/S  ( >0 : ENTERING  <0 : EXITING )
     FLUX BOUNDARY    2:    -34.99962     M3/S  ( >0 : ENTERING  <0 : EXITING )
     RELATIVE ERROR IN VOLUME AT T =       0.2390E+05 S :   -0.6220887E-14

================================================================================
 ITERATION     9000    TIME:  6 H 40 MIN   0.0000 S   (    24000.0000 S)
--------------------------------------------------------------------------------
                    DIFFUSION-PROPAGATION STEP
 CVTRVF_NERD_2 (SCHEME 13 OR 14):  17 ITERATIONS
 GRACJG (BIEF) :        3 ITERATIONS, ABSOLUTE PRECISION:   0.2537858E-04
 POSITIVE DEPTHS OBTAINED IN    17 ITERATIONS
--------------------------------------------------------------------------------
                          K-EPSILON MODEL
 CVTRVF_NERD_2 (SCHEME 13 OR 14):  17 ITERATIONS
 GRACJG (BIEF) :        2 ITERATIONS, RELATIVE PRECISION:   0.3624534E-11
 GRACJG (BIEF) :        2 ITERATIONS, RELATIVE PRECISION:   0.1823046E-09
--------------------------------------------------------------------------------
                       BALANCE OF WATER VOLUME
     VOLUME IN THE DOMAIN :    268926.1     M3
     FLUX BOUNDARY    1:     35.00000     M3/S  ( >0 : ENTERING  <0 : EXITING )
     FLUX BOUNDARY    2:    -34.99962     M3/S  ( >0 : ENTERING  <0 : EXITING )
     RELATIVE ERROR IN VOLUME AT T =       0.2400E+05 S :   -0.1612424E-14

================================================================================
 ITERATION     9100    TIME:  6 H 41 MIN  40.0000 S   (    24100.0000 S)
--------------------------------------------------------------------------------
                    DIFFUSION-PROPAGATION STEP
 CVTRVF_NERD_2 (SCHEME 13 OR 14):  17 ITERATIONS
 GRACJG (BIEF) :        3 ITERATIONS, ABSOLUTE PRECISION:   0.2537859E-04
 POSITIVE DEPTHS OBTAINED IN    17 ITERATIONS
--------------------------------------------------------------------------------
                          K-EPSILON MODEL
 CVTRVF_NERD_2 (SCHEME 13 OR 14):  17 ITERATIONS
 GRACJG (BIEF) :        2 ITERATIONS, RELATIVE PRECISION:   0.3846327E-11
 GRACJG (BIEF) :        2 ITERATIONS, RELATIVE PRECISION:   0.1823063E-09
--------------------------------------------------------------------------------
                       BALANCE OF WATER VOLUME
     VOLUME IN THE DOMAIN :    268926.1     M3
     FLUX BOUNDARY    1:     35.00000     M3/S  ( >0 : ENTERING  <0 : EXITING )
     FLUX BOUNDARY    2:    -34.99962     M3/S  ( >0 : ENTERING  <0 : EXITING )
     RELATIVE ERROR IN VOLUME AT T =       0.2410E+05 S :    0.1425175E-15

================================================================================
 ITERATION     9200    TIME:  6 H 43 MIN  20.0000 S   (    24200.0000 S)
--------------------------------------------------------------------------------
                    DIFFUSION-PROPAGATION STEP
 CVTRVF_NERD_2 (SCHEME 13 OR 14):  17 ITERATIONS
 GRACJG (BIEF) :        3 ITERATIONS, ABSOLUTE PRECISION:   0.2538049E-04
 POSITIVE DEPTHS OBTAINED IN    17 ITERATIONS
--------------------------------------------------------------------------------
                          K-EPSILON MODEL
 CVTRVF_NERD_2 (SCHEME 13 OR 14):  17 ITERATIONS
 GRACJG (BIEF) :        2 ITERATIONS, RELATIVE PRECISION:   0.3421285E-11
 GRACJG (BIEF) :        2 ITERATIONS, RELATIVE PRECISION:   0.1823158E-09
--------------------------------------------------------------------------------
                       BALANCE OF WATER VOLUME
     VOLUME IN THE DOMAIN :    268926.2     M3
     FLUX BOUNDARY    1:     35.00000     M3/S  ( >0 : ENTERING  <0 : EXITING )
     FLUX BOUNDARY    2:    -34.99962     M3/S  ( >0 : ENTERING  <0 : EXITING )
     RELATIVE ERROR IN VOLUME AT T =       0.2420E+05 S :    0.1442375E-14

================================================================================
 ITERATION     9300    TIME:  6 H 45 MIN   0.0000 S   (    24300.0000 S)
--------------------------------------------------------------------------------
                    DIFFUSION-PROPAGATION STEP
 CVTRVF_NERD_2 (SCHEME 13 OR 14):  17 ITERATIONS
 GRACJG (BIEF) :        3 ITERATIONS, ABSOLUTE PRECISION:   0.2538793E-04
 POSITIVE DEPTHS OBTAINED IN    17 ITERATIONS
--------------------------------------------------------------------------------
                          K-EPSILON MODEL
 CVTRVF_NERD_2 (SCHEME 13 OR 14):  17 ITERATIONS
 GRACJG (BIEF) :        2 ITERATIONS, RELATIVE PRECISION:   0.3327069E-11
 GRACJG (BIEF) :        2 ITERATIONS, RELATIVE PRECISION:   0.1822821E-09
--------------------------------------------------------------------------------
                       BALANCE OF WATER VOLUME
     VOLUME IN THE DOMAIN :    268926.2     M3
     FLUX BOUNDARY    1:     35.00000     M3/S  ( >0 : ENTERING  <0 : EXITING )
     FLUX BOUNDARY    2:    -34.99962     M3/S  ( >0 : ENTERING  <0 : EXITING )
     RELATIVE ERROR IN VOLUME AT T =       0.2430E+05 S :   -0.2881156E-14

================================================================================
 ITERATION     9400    TIME:  6 H 46 MIN  40.0000 S   (    24400.0000 S)
--------------------------------------------------------------------------------
                    DIFFUSION-PROPAGATION STEP
 CVTRVF_NERD_2 (SCHEME 13 OR 14):  17 ITERATIONS
 GRACJG (BIEF) :        3 ITERATIONS, ABSOLUTE PRECISION:   0.2538210E-04
 POSITIVE DEPTHS OBTAINED IN    17 ITERATIONS
--------------------------------------------------------------------------------
                          K-EPSILON MODEL
 CVTRVF_NERD_2 (SCHEME 13 OR 14):  17 ITERATIONS
 GRACJG (BIEF) :        2 ITERATIONS, RELATIVE PRECISION:   0.3599683E-11
 GRACJG (BIEF) :        2 ITERATIONS, RELATIVE PRECISION:   0.1822928E-09
--------------------------------------------------------------------------------
                       BALANCE OF WATER VOLUME
     VOLUME IN THE DOMAIN :    268926.3     M3
     FLUX BOUNDARY    1:     35.00000     M3/S  ( >0 : ENTERING  <0 : EXITING )
     FLUX BOUNDARY    2:    -34.99963     M3/S  ( >0 : ENTERING  <0 : EXITING )
     RELATIVE ERROR IN VOLUME AT T =       0.2440E+05 S :    0.3924672E-14

================================================================================
 ITERATION     9500    TIME:  6 H 48 MIN  20.0000 S   (    24500.0000 S)
--------------------------------------------------------------------------------
                    DIFFUSION-PROPAGATION STEP
 CVTRVF_NERD_2 (SCHEME 13 OR 14):  17 ITERATIONS
 GRACJG (BIEF) :        3 ITERATIONS, ABSOLUTE PRECISION:   0.2538383E-04
 POSITIVE DEPTHS OBTAINED IN    17 ITERATIONS
--------------------------------------------------------------------------------
                          K-EPSILON MODEL
 CVTRVF_NERD_2 (SCHEME 13 OR 14):  17 ITERATIONS
 GRACJG (BIEF) :        2 ITERATIONS, RELATIVE PRECISION:   0.3160783E-11
 GRACJG (BIEF) :        2 ITERATIONS, RELATIVE PRECISION:   0.1822737E-09
--------------------------------------------------------------------------------
                       BALANCE OF WATER VOLUME
     VOLUME IN THE DOMAIN :    268926.3     M3
     FLUX BOUNDARY    1:     35.00000     M3/S  ( >0 : ENTERING  <0 : EXITING )
     FLUX BOUNDARY    2:    -34.99963     M3/S  ( >0 : ENTERING  <0 : EXITING )
     RELATIVE ERROR IN VOLUME AT T =       0.2450E+05 S :   -0.1295339E-14

================================================================================
 ITERATION     9600    TIME:  6 H 50 MIN   0.0000 S   (    24600.0000 S)
--------------------------------------------------------------------------------
                    DIFFUSION-PROPAGATION STEP
 CVTRVF_NERD_2 (SCHEME 13 OR 14):  17 ITERATIONS
 GRACJG (BIEF) :        3 ITERATIONS, ABSOLUTE PRECISION:   0.2538450E-04
 POSITIVE DEPTHS OBTAINED IN    17 ITERATIONS
--------------------------------------------------------------------------------
                          K-EPSILON MODEL
 CVTRVF_NERD_2 (SCHEME 13 OR 14):  17 ITERATIONS
 GRACJG (BIEF) :        2 ITERATIONS, RELATIVE PRECISION:   0.3080253E-11
 GRACJG (BIEF) :        2 ITERATIONS, RELATIVE PRECISION:   0.1822867E-09
--------------------------------------------------------------------------------
                       BALANCE OF WATER VOLUME
     VOLUME IN THE DOMAIN :    268926.3     M3
     FLUX BOUNDARY    1:     35.00000     M3/S  ( >0 : ENTERING  <0 : EXITING )
     FLUX BOUNDARY    2:    -34.99963     M3/S  ( >0 : ENTERING  <0 : EXITING )
     RELATIVE ERROR IN VOLUME AT T =       0.2460E+05 S :   -0.6380942E-14

================================================================================
 ITERATION     9700    TIME:  6 H 51 MIN  40.0000 S   (    24700.0000 S)
--------------------------------------------------------------------------------
                    DIFFUSION-PROPAGATION STEP
 CVTRVF_NERD_2 (SCHEME 13 OR 14):  17 ITERATIONS
 GRACJG (BIEF) :        3 ITERATIONS, ABSOLUTE PRECISION:   0.2538498E-04
 POSITIVE DEPTHS OBTAINED IN    17 ITERATIONS
--------------------------------------------------------------------------------
                          K-EPSILON MODEL
 CVTRVF_NERD_2 (SCHEME 13 OR 14):  17 ITERATIONS
 GRACJG (BIEF) :        2 ITERATIONS, RELATIVE PRECISION:   0.3392238E-11
 GRACJG (BIEF) :        2 ITERATIONS, RELATIVE PRECISION:   0.1822663E-09
--------------------------------------------------------------------------------
                       BALANCE OF WATER VOLUME
     VOLUME IN THE DOMAIN :    268926.4     M3
     FLUX BOUNDARY    1:     35.00000     M3/S  ( >0 : ENTERING  <0 : EXITING )
     FLUX BOUNDARY    2:    -34.99963     M3/S  ( >0 : ENTERING  <0 : EXITING )
     RELATIVE ERROR IN VOLUME AT T =       0.2470E+05 S :    0.1662174E-14

================================================================================
 ITERATION     9800    TIME:  6 H 53 MIN  20.0000 S   (    24800.0000 S)
--------------------------------------------------------------------------------
                    DIFFUSION-PROPAGATION STEP
 CVTRVF_NERD_2 (SCHEME 13 OR 14):  17 ITERATIONS
 GRACJG (BIEF) :        3 ITERATIONS, ABSOLUTE PRECISION:   0.2538591E-04
 POSITIVE DEPTHS OBTAINED IN    17 ITERATIONS
--------------------------------------------------------------------------------
                          K-EPSILON MODEL
 CVTRVF_NERD_2 (SCHEME 13 OR 14):  17 ITERATIONS
 GRACJG (BIEF) :        2 ITERATIONS, RELATIVE PRECISION:   0.2941069E-11
 GRACJG (BIEF) :        2 ITERATIONS, RELATIVE PRECISION:   0.1822582E-09
--------------------------------------------------------------------------------
                       BALANCE OF WATER VOLUME
     VOLUME IN THE DOMAIN :    268926.4     M3
     FLUX BOUNDARY    1:     35.00000     M3/S  ( >0 : ENTERING  <0 : EXITING )
     FLUX BOUNDARY    2:    -34.99963     M3/S  ( >0 : ENTERING  <0 : EXITING )
     RELATIVE ERROR IN VOLUME AT T =       0.2480E+05 S :    0.1315313E-14

================================================================================
 ITERATION     9900    TIME:  6 H 55 MIN   0.0000 S   (    24900.0000 S)
--------------------------------------------------------------------------------
                    DIFFUSION-PROPAGATION STEP
 CVTRVF_NERD_2 (SCHEME 13 OR 14):  17 ITERATIONS
 GRACJG (BIEF) :        3 ITERATIONS, ABSOLUTE PRECISION:   0.2538780E-04
 POSITIVE DEPTHS OBTAINED IN    17 ITERATIONS
--------------------------------------------------------------------------------
                          K-EPSILON MODEL
 CVTRVF_NERD_2 (SCHEME 13 OR 14):  17 ITERATIONS
 GRACJG (BIEF) :        2 ITERATIONS, RELATIVE PRECISION:   0.2873831E-11
 GRACJG (BIEF) :        2 ITERATIONS, RELATIVE PRECISION:   0.1822701E-09
--------------------------------------------------------------------------------
                       BALANCE OF WATER VOLUME
     VOLUME IN THE DOMAIN :    268926.4     M3
     FLUX BOUNDARY    1:     35.00000     M3/S  ( >0 : ENTERING  <0 : EXITING )
     FLUX BOUNDARY    2:    -34.99963     M3/S  ( >0 : ENTERING  <0 : EXITING )
     RELATIVE ERROR IN VOLUME AT T =       0.2490E+05 S :   -0.5973573E-14

================================================================================
 ITERATION    10000    TIME:  6 H 56 MIN  40.0000 S   (    25000.0000 S)
--------------------------------------------------------------------------------
                    DIFFUSION-PROPAGATION STEP
 CVTRVF_NERD_2 (SCHEME 13 OR 14):  17 ITERATIONS
 GRACJG (BIEF) :        3 ITERATIONS, ABSOLUTE PRECISION:   0.2540059E-04
 POSITIVE DEPTHS OBTAINED IN    17 ITERATIONS
--------------------------------------------------------------------------------
                          K-EPSILON MODEL
 CVTRVF_NERD_2 (SCHEME 13 OR 14):  17 ITERATIONS
 GRACJG (BIEF) :        2 ITERATIONS, RELATIVE PRECISION:   0.3225159E-11
 GRACJG (BIEF) :        2 ITERATIONS, RELATIVE PRECISION:   0.1822535E-09
--------------------------------------------------------------------------------
                       BALANCE OF WATER VOLUME
     VOLUME IN THE DOMAIN :    268926.5     M3
     FLUX BOUNDARY    1:     35.00000     M3/S  ( >0 : ENTERING  <0 : EXITING )
     FLUX BOUNDARY    2:    -34.99963     M3/S  ( >0 : ENTERING  <0 : EXITING )
     RELATIVE ERROR IN VOLUME AT T =       0.2500E+05 S :    0.2327571E-14
--------------------------------------------------------------------------------
                   FINAL BALANCE OF WATER VOLUME

     RELATIVE ERROR CUMULATED ON VOLUME:    0.4112446E-14

     INITIAL VOLUME              :     268899.0     M3
     FINAL VOLUME                :     268926.5     M3
     VOLUME THAT ENTERED THE DOMAIN:     27.48362     M3  ( IF <0 EXIT )
     TOTAL VOLUME LOST             :    0.1105946E-08 M3

 END OF TIME LOOP

 EXITING MPI

                     *************************************
                     *    END OF MEMORY ORGANIZATION:    *
                     *************************************

 CORRECT END OF RUN

 ELAPSE TIME :
                              3  MINUTES
                              3  SECONDS
Note: The following floating-point exceptions are signalling: IEEE_UNDERFLOW_FLAG IEEE_DENORMAL
STOP 0
