 MASTER PROCESSOR NUMBER            0  OF THE GROUP OF            1
 EXECUTABLE FILE: /home/schwindt/github/hytelemac/steady2d-tutorial/steady2d.cas_2023-07-26-18h41min26s/A.EXE
 LISTING OF TELEMAC2D------------------------------------------------------------------------------

                TTTTT  EEEEE  L      EEEEE  M   M  AAAAA  CCCCC
                  T    E      L      E      MM MM  A   A  C
                  T    EEE    L      EEE    M M M  AAAAA  C
                  T    E      L      E      M   M  A   A  C
                  T    EEEEE  LLLLL  EEEEE  M   M  A   A  CCCCC

                        2D    VERSION V8P4   FORTRAN 2003

                        ~^~^~^~^~^~^~^~^~^~^~^^~^~^~^~^~^~
                          ~                            ~
                               \   '    o      '
                               /\ o       \  o
                             >=)'>    '   /\ '
                               \/   \   >=)'>        ~
                               /    /\    \/
                        ~         >=)'>   /     .
                                    \/                   )
                                    /                   (
                                          ~          )   )
                          }     ~              (    (   (
                         {                      )    )   )
                          }  }         .       (    (   (
                         {  {               /^^^^^^^^^^^^
                        ^^^^^^^^^\         /
                                  ^^^^^^^^^

 THE KEY-WORD: PRINTING CUMULATED FLOWRATES
 APPPEARS AT LEAST TWICE , THE LAST VALUE WILL BE KEPT...

 VALUES OF THE KEY-WORDS:

 GRAPHIC PRINTOUT PERIOD
 MOTINT( 11)=        50

 LISTING PRINTOUT PERIOD
 MOTINT( 16)=        50

 NUMBER OF TIME STEPS
 MOTINT( 55)=     10000

 NON-NEWTONIAN MODEL
 MOTINT( 30)=         0

 TYPE OF ADVECTION
 MOTINT( 72)=         1

 TYPE OF ADVECTION
 MOTINT( 73)=         5

 TYPE OF ADVECTION
 MOTINT( 74)=         1

 TYPE OF ADVECTION
 MOTINT( 75)=         1

 NUMBER OF CULVERTS
 MOTINT(130)=         0

 TURBULENCE MODEL
 MOTINT(100)=         3

 LAW OF BOTTOM FRICTION
 MOTINT( 27)=         4

 MAXIMUM NUMBER OF ITERATIONS FOR DIFFUSION OF TRACERS
 MOTINT(115)=        60

 MAXIMUM NUMBER OF ITERATIONS FOR SOLVER
 MOTINT( 65)=       200

 SOLVER FOR DIFFUSION OF TRACERS
 MOTINT(111)=         1

 SOLVER FOR DIFFUSION OF TRACERS
 MOTINT(112)=         1

 FINITE VOLUME SCHEME FOR VELOCITY DIFFUSION
 MOTINT( 90)=         1

 MAXIMUM NUMBER OF ITERATIONS FOR K AND EPSILON
 MOTINT(107)=        50

 PRECONDITIONING
 MOTINT( 66)=         2

 INITIAL GUESS FOR H
 MOTINT( 70)=         1

 DISCRETIZATIONS IN SPACE
 MOTINT( 68)=        11

 DISCRETIZATIONS IN SPACE
 MOTINT( 69)=        11

 NUMBER OF CORRECTIONS OF DISTRIBUTIVE SCHEMES
 MOTINT( 87)=         1

 NUMBER OF SUB-STEPS OF DISTRIBUTIVE SCHEMES
 MOTINT( 88)=         1

 SOLVER
 MOTINT( 63)=         1

 BINGHAM OPTION
 MOTINT( 31)=         1

 NUMBER OF SUB-ITERATIONS FOR NON-LINEARITIES
 MOTINT( 85)=         1

 NUMBER OF FIRST TIME STEP FOR GRAPHIC PRINTOUTS
 MOTINT( 10)=         0

 NUMBER OF FIRST TIME STEP FOR LISTING PRINTOUTS
 MOTINT( 15)=         0

 PRECONDITIONING FOR DIFFUSION OF TRACERS
 MOTINT(114)=         2

 SOLVER FOR K-EPSILON MODEL
 MOTINT(101)=         1

 PRECONDITIONING FOR K-EPSILON MODEL
 MOTINT(103)=         2

 TURBULENCE REGIME FOR SOLID BOUNDARIES
 MOTINT(104)=         2

 MAXIMUM NUMBER OF DROGUES
 MOTINT(119)=         0

 PRINTOUT PERIOD FOR DROGUES
 MOTINT(120)=         1

 NUMBER OF LAGRANGIAN DRIFTS
 MOTINT(127)=         0

 BOTTOM SMOOTHINGS
 MOTINT(  1)=         0

 SOLVER OPTION FOR TRACERS DIFFUSION
 MOTINT(113)=         2

 SOLVER OPTION
 MOTINT( 64)=         2

 OPTION FOR THE SOLVER FOR K-EPSILON MODEL
 MOTINT(102)=         2

 OPTION FOR THE TREATMENT OF TIDAL FLATS
 MOTINT(108)=         1

 VECTOR LENGTH
 MOTINT(  6)=         1

 SUPG OPTION
 MOTINT( 77)=         0

 SUPG OPTION
 MOTINT( 78)=         0

 SUPG OPTION
 MOTINT( 79)=         2

 SUPG OPTION
 MOTINT( 80)=         2

 INITIAL GUESS FOR U
 MOTINT( 71)=         1

 RECORD NUMBER FOR RESTART
 MOTINT(  7)=        -1

 MATRIX STORAGE
 MOTINT( 96)=         3

 ORIGINAL DATE OF TIME
 MOTINT( 56)=      1900

 ORIGINAL DATE OF TIME
 MOTINT( 57)=         1

 ORIGINAL DATE OF TIME
 MOTINT( 58)=         1

 ORIGINAL HOUR OF TIME
 MOTINT( 59)=         0

 ORIGINAL HOUR OF TIME
 MOTINT( 60)=         0

 ORIGINAL HOUR OF TIME
 MOTINT( 61)=         0

 MATRIX-VECTOR PRODUCT
 MOTINT( 97)=         1

 CONTROL SECTIONS
 VALUE NOT FOUND

 NUMBER OF WEIRS
 MOTINT(128)=         0

 FINITE VOLUME SCHEME FOR TRACER DIFFUSION
 MOTINT( 91)=         1

 FINITE VOLUME SCHEME FOR TRACER DIFFUSION
 MOTINT( 92)=         1

 OPTION FOR LIQUID BOUNDARIES
 VALUE NOT FOUND

 TREATMENT OF THE LINEAR SYSTEM
 MOTINT( 45)=         2

 PARALLEL PROCESSORS
 MOTINT(  2)=         0

 VELOCITY PROFILES
 MOTINT( 22)=         4

 VELOCITY PROFILES
 MOTINT( 23)=         1

 OPTION FOR THE DIFFUSION OF TRACERS
 MOTINT(116)=         1

 OPTION FOR THE DIFFUSION OF VELOCITIES
 MOTINT( 89)=         1

 TYPE OF SOURCES
 MOTINT( 40)=         1

 NUMBER OF PRIVATE ARRAYS
 MOTINT( 12)=         0

 LANGUAGE
 MOTINT(142)=         2

 RECORD NUMBER IN WAVE FILE
 MOTINT( 36)=         1

 IDENTIFICATION METHOD
 MOTINT( 38)=         1

 LIST OF POINTS
 VALUE NOT FOUND

 COST FUNCTION
 MOTINT( 37)=         1

 MAXIMUM NUMBER OF ITERATIONS FOR IDENTIFICATION
 MOTINT( 39)=        20

 COUPLING PERIOD FOR SISYPHE
 MOTINT(140)=         1

 FINITE VOLUME SCHEME
 MOTINT( 46)=         1

 MAXIMUM NUMBER OF FRICTION DOMAINS
 MOTINT( 26)=        10

 LISTING FOR PRINTOUT PERIOD
 MOTINT( 17)=         1

 OPTION FOR DIRICHLET CONDITION IN FV DIFFUSION
 MOTINT( 94)=         1

 DELWAQ PRINTOUT PERIOD
 MOTINT(139)=         1

 NUMBER OF TRACERS
 MOTINT(110)=         0

 STAGE-DISCHARGE CURVES
 VALUE NOT FOUND

 DEBUGGER
 MOTINT( 54)=         0

 TREATMENT OF NEGATIVE DEPTHS
 MOTINT(109)=         2

 DEPTH IN FRICTION TERMS
 MOTINT( 28)=         1

 LAW OF FRICTION ON LATERAL BOUNDARIES
 MOTINT( 29)=         4

 COUPLING PERIOD FOR TOMAWAC
 MOTINT(141)=         1

 TREATMENT OF FLUXES AT THE BOUNDARIES
 MOTINT( 86)=         1

 OPTION FOR TIDAL BOUNDARY CONDITIONS
 VALUE NOT FOUND

 OPTION FOR TSUNAMI GENERATION
 MOTINT( 53)=         0

 TIDAL DATA BASE
 MOTINT(137)=        -1

 GEOGRAPHIC SYSTEM
 MOTINT(132)=        -1

 ZONE NUMBER IN GEOGRAPHIC SYSTEM
 MOTINT(133)=        -1

 NUMBER OF ALGAE CLASSES
 MOTINT(121)=         0

 SPATIAL PROJECTION TYPE
 MOTINT( 62)=         1

 ALGAE TYPE
 MOTINT(122)=         1

 ALGAE TYPE
 MOTINT(123)=         1

 OPTION FOR CHARACTERISTICS
 MOTINT( 76)=         1

 MAXIMUM NUMBER OF ITERATIONS FOR ADVECTION SCHEMES
 MOTINT( 82)=        50

 STOCHASTIC DIFFUSION MODEL
 MOTINT(126)=         0

 NUMBER OF GAUSS POINTS FOR WEAK CHARACTERISTICS
 MOTINT( 81)=         3

 TYPE OF WEIRS
 MOTINT(129)=         1

 SCHEME FOR ADVECTION OF VELOCITIES
 MOTINT( 83)=        14

 SCHEME FOR ADVECTION OF TRACERS
 MOTINT(117)=         5

 SCHEME FOR ADVECTION OF K-EPSILON
 MOTINT(105)=        14

 SCHEME OPTION FOR ADVECTION OF TRACERS
 MOTINT(118)=         1

 SCHEME OPTION FOR ADVECTION OF VELOCITIES
 MOTINT( 84)=         1

 SCHEME OPTION FOR ADVECTION OF K-EPSILON
 MOTINT(106)=         1

 OPTION FOR WIND
 MOTINT( 32)=         1

 MAXIMUM NUMBER OF BOUNDARIES
 MOTINT(  3)=        30

 MAXIMUM NUMBER OF SOURCES
 MOTINT(  4)=        20

 MAXIMUM NUMBER OF TRACERS
 MOTINT(  5)=        20

 LOCAL NUMBER OF THE POINT TO CALIBRATE HIGH WATER
 MOTINT(138)=         0

 GLOBAL NUMBER OF THE POINT TO CALIBRATE HIGH WATER
 MOTINT(134)=         0

 WATER QUALITY PROCESS
 MOTINT( 44)=         1

 OPTION OF THE HYDROSTATIC RECONSTRUCTION
 MOTINT( 98)=         1

 OPTION FOR CULVERTS
 MOTINT(131)=         1

 RAINFALL-RUNOFF MODEL
 MOTINT( 33)=         0

 AD NUMBER OF DERIVATIVES
 MOTINT( 95)=         0

 ANTECEDENT MOISTURE CONDITIONS
 MOTINT( 34)=         2

 OPTION FOR INITIAL ABSTRACTION RATIO
 MOTINT( 35)=         1

 REFINEMENT LEVELS
 MOTINT( 99)=         0

 FINITE ELEMENT ASSEMBLY
 MOTINT( 67)=         1

 RESTART FILE PRINTOUT PERIOD
 MOTINT(  8)=         0

 RECORD NUMBER IN RESTART FILE
 MOTINT(  9)=        -1

 GLOBAL NUMBERS OF SOURCE NODES
 VALUE NOT FOUND

 MAXIMUM NUMBER OF POINTS FOR SOURCES REGIONS
 MOTINT( 43)=        10

 ALGAE RELEASE TYPE
 MOTINT(124)=         1

 ALGAE RELEASE TYPE
 MOTINT(125)=         1

 FINITE VOLUME SCHEME SPACE ORDER
 MOTINT( 47)=         1

 FINITE VOLUME SCHEME TIME ORDER
 MOTINT( 48)=         1

 FLUX LIMITOR FOR H PLUS Z
 MOTINT( 49)=         1

 FLUX LIMITOR FOR U AND V
 MOTINT( 50)=         2

 FLUX LIMITOR FOR TRACERS
 MOTINT( 51)=         2

 TYPE OF BOUNDARY CONDITION FOR KINETIC SCHEME
 MOTINT( 52)=         1

 OPTION FOR THE RTPF SCHEME RECONSTRUCTIONS
 MOTINT( 93)=         1

 TIME STEP
 MOTREA( 69)=     1.000000

 GRAVITY ACCELERATION
 MOTREA( 55)=     9.810000

 ZERO
 MOTREA( 97)=    0.1000000E-09

 FRICTION COEFFICIENT
 MOTREA( 15)=    0.3000000E-01

 CORIOLIS COEFFICIENT
 MOTREA( 56)=     0.000000

 COEFFICIENT OF WIND INFLUENCE
 MOTREA( 23)=    0.1550000E-05

 WIND VELOCITY ALONG X
 MOTREA( 24)=     0.000000

 WIND VELOCITY ALONG Y
 MOTREA( 25)=     0.000000

 INITIAL VALUES OF TRACERS
 MOTREA(111)=     0.000000

 INITIAL VALUES OF TRACERS
 MOTREA(112)=     0.000000

 COEFFICIENT FOR DIFFUSION OF TRACERS
 MOTREA(120)=    0.1000000E-05

 ACCURACY FOR DIFFUSION OF TRACERS
 MOTREA(114)=    0.1000000E-05

 IMPLICITATION COEFFICIENT OF TRACERS
 MOTREA(119)=    0.6000000

 VELOCITY DIFFUSIVITY
 MOTREA( 98)=    0.1000000E-05

 SOLVER ACCURACY
 MOTREA( 87)=    0.1000000E-03

 LIMIT VALUES
 MOTREA( 74)=    -1000.000

 LIMIT VALUES
 MOTREA( 75)=     9000.000

 LIMIT VALUES
 MOTREA( 76)=    -1000.000

 LIMIT VALUES
 MOTREA( 77)=     1000.000

 LIMIT VALUES
 MOTREA( 78)=    -1000.000

 LIMIT VALUES
 MOTREA( 79)=     1000.000

 LIMIT VALUES
 MOTREA( 80)=    -1000.000

 LIMIT VALUES
 MOTREA( 81)=     1000.000

 THRESHOLD DEPTH FOR RECEDING PROCEDURE
 MOTREA(107)=     0.000000

 IMPLICITATION FOR DEPTH
 MOTREA( 88)=    0.5500000

 IMPLICITATION FOR VELOCITY
 MOTREA( 89)=    0.5500000

 IMPLICITATION FOR DIFFUSION OF VELOCITY
 MOTREA( 95)=     1.000000

 MASS-LUMPING ON H
 MOTREA( 92)=     1.000000

 MASS-LUMPING ON VELOCITY
 MOTREA( 93)=     1.000000

 MINIMUM VALUE OF DEPTH
 MOTREA(108)=     0.000000

 NON-NEWTONIAN VISCOSITY
 MOTREA( 18)=     0.000000

 ACCURACY OF K
 MOTREA(104)=    0.1000000E-08

 ACCURACY OF EPSILON
 MOTREA(105)=    0.1000000E-08

 MEAN DEPTH FOR LINEARIZATION
 MOTREA( 90)=     0.000000

 WATER DENSITY
 MOTREA( 54)=     1000.000

 LATITUDE OF ORIGIN POINT
 MOTREA( 84)=     48.00000

 ROUGHNESS COEFFICIENT OF BOUNDARIES
 MOTREA( 17)=    0.3000000E-01

 PRESCRIBED FLOWRATES
 MOTREA( 10)=     35.00000

 PRESCRIBED FLOWRATES
 MOTREA( 11)=     0.000000

 PRESCRIBED ELEVATIONS
 MOTREA(  8)=     374.8057

 PRESCRIBED ELEVATIONS
 MOTREA(  9)=     371.3300

 PRESCRIBED VELOCITIES
 VALUE NOT FOUND

 INITIAL ELEVATION
 MOTREA(  1)=     0.000000

 INITIAL DEPTH
 MOTREA(  2)=     1.000000

 PRESCRIBED TRACERS VALUES
 VALUE NOT FOUND

 ABSCISSAE OF SOURCES
 VALUE NOT FOUND

 ORDINATES OF SOURCES
 VALUE NOT FOUND

 WATER DISCHARGE OF SOURCES
 VALUE NOT FOUND

 VALUES OF THE TRACERS AT THE SOURCES
 VALUE NOT FOUND

 MIXING LENGTH MODEL COEFFICIENTS
 MOTREA(102)=    0.1066667

 MIXING LENGTH MODEL COEFFICIENTS
 MOTREA(103)=    0.6666670E-01

 STOP CRITERIA
 MOTREA( 71)=    0.1000000E-03

 STOP CRITERIA
 MOTREA( 72)=    0.1000000E-03

 STOP CRITERIA
 MOTREA( 73)=    0.1000000E-03

 MEAN TEMPERATURE
 MOTREA(113)=     20.00000

 VELOCITIES OF THE SOURCES ALONG X
 VALUE NOT FOUND

 VELOCITIES OF THE SOURCES ALONG Y
 VALUE NOT FOUND

 DURATION
 MOTREA( 70)=     0.000000

 NORTH
 MOTREA( 86)=     0.000000

 NON-DIMENSIONAL DISPERSION COEFFICIENTS
 MOTREA(100)=     6.000000

 NON-DIMENSIONAL DISPERSION COEFFICIENTS
 MOTREA(101)=    0.6000000

 LONGITUDE OF ORIGIN POINT
 MOTREA( 85)=     0.000000

 MASS-LUMPING ON TRACERS
 MOTREA(121)=     1.000000

 DESIRED COURANT NUMBER
 MOTREA( 82)=     1.000000

 FOURIER ANALYSIS PERIODS
 VALUE NOT FOUND

 TOLERANCES FOR IDENTIFICATION
 MOTREA( 40)=    0.1000000E-02

 TOLERANCES FOR IDENTIFICATION
 MOTREA( 41)=    0.1000000E-02

 TOLERANCES FOR IDENTIFICATION
 MOTREA( 42)=    0.1000000E-02

 TOLERANCES FOR IDENTIFICATION
 MOTREA( 43)=    0.1000000E-03

 MANNING DEFAULT VALUE FOR COLEBROOK-WHITE LAW
 MOTREA( 16)=    0.2000000E-01

 MINIMUM DEPTH TO COMPUTE TIDAL VELOCITIES INITIAL CONDITIONS
 MOTREA(139)=    0.1000000

 MINIMUM DEPTH TO COMPUTE TIDAL VELOCITIES BOUNDARY CONDITIONS
 MOTREA(142)=    0.1000000

 THRESHOLD DEPTH FOR WIND
 MOTREA( 28)=     1.000000

 THRESHOLD FOR NEGATIVE DEPTHS
 MOTREA(106)=     0.000000

 FREE SURFACE GRADIENT COMPATIBILITY
 MOTREA( 94)=    0.1000000

 TIME RANGE FOR FOURIER ANALYSIS
 MOTREA(  6)=     0.000000

 TIME RANGE FOR FOURIER ANALYSIS
 MOTREA(  7)=     0.000000

 NEWMARK TIME INTEGRATION COEFFICIENT
 MOTREA( 96)=    0.5000000

 RAIN OR EVAPORATION IN MM PER DAY
 MOTREA( 30)=     0.000000

 PHYSICAL CHARACTERISTICS OF THE TSUNAMI
 MOTREA( 57)=     100.0000

 PHYSICAL CHARACTERISTICS OF THE TSUNAMI
 MOTREA( 58)=     210000.0

 PHYSICAL CHARACTERISTICS OF THE TSUNAMI
 MOTREA( 59)=     75000.00

 PHYSICAL CHARACTERISTICS OF THE TSUNAMI
 MOTREA( 60)=     13.60000

 PHYSICAL CHARACTERISTICS OF THE TSUNAMI
 MOTREA( 61)=     81.00000

 PHYSICAL CHARACTERISTICS OF THE TSUNAMI
 MOTREA( 62)=     41.00000

 PHYSICAL CHARACTERISTICS OF THE TSUNAMI
 MOTREA( 63)=     110.0000

 PHYSICAL CHARACTERISTICS OF THE TSUNAMI
 MOTREA( 64)=     0.000000

 PHYSICAL CHARACTERISTICS OF THE TSUNAMI
 MOTREA( 65)=     0.000000

 PHYSICAL CHARACTERISTICS OF THE TSUNAMI
 MOTREA( 66)=     3.000000

 VALUES OF TRACERS IN THE RAIN
 VALUE NOT FOUND

 COEFFICIENT TO CALIBRATE TIDAL RANGE
 MOTREA(140)=     1.000000

 COEFFICIENT TO CALIBRATE TIDAL VELOCITIES
 MOTREA(141)=     999999.0

 COEFFICIENT TO CALIBRATE SEA LEVEL
 MOTREA(138)=     0.000000

 INITIAL DROGUES SAMPLING DENSITY
 MOTREA(122)=     1000.000

 INITIAL DROGUES SAMPLING DENSITY
 MOTREA(123)=     1000.000

 DIAMETER OF ALGAE
 MOTREA(124)=    0.1000000

 DIAMETER OF ALGAE
 MOTREA(125)=    0.1000000

 DENSITY OF ALGAE
 MOTREA(128)=     1050.000

 DENSITY OF ALGAE
 MOTREA(129)=     1050.000

 THICKNESS OF ALGAE
 MOTREA(130)=    0.1000000E-01

 THICKNESS OF ALGAE
 MOTREA(131)=    0.1000000E-01

 MASS-LUMPING FOR WEAK CHARACTERISTICS
 MOTREA( 91)=     0.000000

 SPEED AND DIRECTION OF WIND
 MOTREA( 26)=     0.000000

 SPEED AND DIRECTION OF WIND
 MOTREA( 27)=     0.000000

 VALUE OF ATMOSPHERIC PRESSURE
 MOTREA( 29)=     100000.0

 PRODUCTION COEFFICIENT FOR SECONDARY CURRENTS
 MOTREA( 67)=     7.071000

 DISSIPATION COEFFICIENT FOR SECONDARY CURRENTS
 MOTREA( 68)=    0.5000000

 DURATION OF RAIN OR EVAPORATION IN HOURS
 MOTREA( 35)=     1000000.

 ACCURACY OF SPALART-ALLMARAS
 MOTREA( 99)=    0.1000000E-08

 DURATION BEFORE ALGAE RELEASE
 MOTREA(126)=     0.000000

 DURATION BEFORE ALGAE RELEASE
 MOTREA(127)=     0.000000

 SECURITY COEFFICIENT FOR SCARACT
 MOTREA(  3)=     1.000000

 WAVE ORBITAL VELOCITY THRESHOLD FOR ALGAE 1
 MOTREA(132)=     2.000000

 WAVE ORBITAL VELOCITY THRESHOLD FOR ALGAE 1
 MOTREA(133)=     2.000000

 WAVE ORBITAL VELOCITY THRESHOLD FOR ALGAE 2
 MOTREA(134)=     0.000000

 WAVE ORBITAL VELOCITY THRESHOLD FOR ALGAE 2
 MOTREA(135)=     0.000000

 RATE OF DEGRADATION FOR ALGAE
 MOTREA(136)=     0.000000

 RATE OF DEGRADATION FOR ALGAE
 MOTREA(137)=     0.000000

 AIR TEMPERATURE
 MOTREA( 36)=     20.00000

 CLOUD COVER
 MOTREA( 37)=     5.000000

 SOLAR RADIATION
 MOTREA( 38)=     160.0000

 VAPOROUS PRESSURE
 MOTREA( 39)=     1000.000

 NON-NEWTONIAN YIELD STRESS
 MOTREA( 19)=     0.000000

 NON-NEWTONIAN LAMINAR RESISTANCE PARAMETER K
 MOTREA( 20)=     24.00000

 NON-NEWTONIAN FLUID DENSITY
 MOTREA( 21)=     1000.000

 HERSCHEL-BULKLEY POWER-LAW INDEX
 MOTREA( 22)=     1.000000

 STAGE-DISCHARGE CURVES RELAXATION COEFFICIENT
 MOTREA( 14)=    0.2000000E-01

 DESIRED FOURIER NUMBER
 MOTREA( 83)=     1.000000

 HORTON TIME CONSTANT
 MOTREA( 31)=    0.1000000E-02

 INITIAL WATER CONTENT
 MOTREA( 32)=     0.000000

 SATURATED WATER CONTENT
 MOTREA( 33)=    0.5000000

 SUCTION
 MOTREA( 34)=    0.2000000

 COMPUTATION CONTINUED
 MOTLOG(  4)= F

 BREACH
 MOTLOG( 56)= F

 LISTING PRINTOUT
 MOTLOG( 12)= T

 DIFFUSION OF VELOCITY
 MOTLOG( 41)= T

 AIR PRESSURE
 MOTLOG( 22)= F

 ADVECTION
 MOTLOG( 38)= T

 ADVECTION OF U AND V
 MOTLOG( 40)= T

 ADVECTION OF H
 MOTLOG( 39)= T

 ADVECTION OF TRACERS
 MOTLOG( 52)= T

 ADVECTION OF K AND EPSILON
 MOTLOG( 48)= T

 DIFFUSION OF TRACERS
 MOTLOG( 53)= T

 PROPAGATION
 MOTLOG( 36)= T

 CORIOLIS
 MOTLOG( 28)= F

 WIND
 MOTLOG( 20)= F

 INFORMATION ABOUT SOLVER
 MOTLOG( 14)= T

 MASS-BALANCE
 MOTLOG( 13)= T

 H CLIPPING
 MOTLOG( 50)= F

 SPHERICAL COORDINATES
 MOTLOG( 33)= F

 RAIN OR EVAPORATION
 MOTLOG( 23)= F

 LINEARIZED PROPAGATION
 MOTLOG( 37)= F

 VALIDATION
 MOTLOG(  2)= F

 INFORMATION ABOUT K-EPSILON MODEL
 MOTLOG( 47)= T

 CONTROL OF LIMITS
 MOTLOG( 31)= F

 TIDAL FLATS
 MOTLOG( 49)= T

 STOP IF A STEADY STATE IS REACHED
 MOTLOG( 30)= F

 ELEMENTS MASKED BY USER
 MOTLOG( 15)= F

 DENSITY EFFECTS
 MOTLOG( 51)= F

 TIDE GENERATING FORCE
 MOTLOG( 60)= F

 CONTINUITY CORRECTION
 MOTLOG( 34)= T

 INITIAL TIME SET TO ZERO
 MOTLOG(  5)= F

 C-U PRECONDITIONING
 MOTLOG( 35)= T

 VARIABLE TIME-STEP
 MOTLOG( 32)= F

 WAVE DRIVEN CURRENTS
 MOTLOG( 25)= F

 VERTICAL STRUCTURES
 MOTLOG( 27)= F

 AD SYMBOLIC LINEAR SOLVER
 MOTLOG( 42)= F

 DEFINITION OF ZONES
 MOTLOG( 18)= F

 FRICTION DATA
 MOTLOG( 16)= F

 VEGETATION FRICTION
 MOTLOG( 17)= F

 PRINTING CUMULATED FLOWRATES
 MOTLOG(  9)= T

 COMPATIBLE COMPUTATION OF FLUXES
 MOTLOG( 10)= F

 SALINITY FOR DELWAQ
 MOTLOG( 64)= F

 TEMPERATURE FOR DELWAQ
 MOTLOG( 63)= F

 VELOCITY FOR DELWAQ
 MOTLOG( 61)= F

 DIFFUSIVITY FOR DELWAQ
 MOTLOG( 62)= F

 OIL SPILL MODEL
 MOTLOG( 55)= F

 MINOR CONSTITUENTS INFERENCE
 MOTLOG( 58)= F

 ALGAE TRANSPORT MODEL
 MOTLOG( 54)= F

 INFORMATION ABOUT SPALART-ALLMARAS MODEL
 MOTLOG( 46)= T

 SECONDARY CURRENTS
 MOTLOG( 29)= F

 WAVE ENHANCED FRICTION FACTOR
 MOTLOG( 26)= F

 CHECKING THE MESH
 MOTLOG(  3)= F

 FLUXLINE
 MOTLOG( 11)= F

 CONVERGENCE STUDY
 MOTLOG( 45)= F

 AD LINEAR SOLVER RESET DERIVATIVES
 MOTLOG( 43)= T

 AD LINEAR SOLVER DERIVATIVE CONVERGENCE
 MOTLOG( 44)= T

 RESULT FILE IN LONGITUDE-LATITUDE
 MOTLOG(  8)= T

 NESTOR
 MOTLOG( 65)= F

 CONCATENATE PARTEL OUTPUT
 MOTLOG( 66)= F

 COEFFICIENT OF WIND INFLUENCE VARYING WITH WIND SPEED
 MOTLOG( 21)= T

 BOTTOM SMOOTHINGS AFTER USER MODIFICATIONS
 MOTLOG(  1)= T

 INITIAL VELOCITIES COMPUTED BY TPXO
 MOTLOG( 59)= T

 NON-NEWTONIAN PSEUDO-BIPHASIC MODEL
 MOTLOG( 19)= F

 FREE FORMAT FOR ATMOSPHERIC DATA FILE
 MOTLOG( 24)= F

 INITIAL WIDTHS OF BREACHES
 MOTLOG( 57)= F

 RESTART MODE
 MOTLOG(  6)= F

 USE MAXIMUM VALUES FROM PREVIOUS COMPUTATION FILE
 MOTLOG(  7)= T

 TITLE
 MOTCAR(  1)= 2d steady

 VARIABLES FOR GRAPHIC PRINTOUTS
 MOTCAR( 20)= U,V,S,B,Q,F,H

 VARIABLES TO BE PRINTED
 MOTCAR( 37)=

 GEOMETRY FILE
 MOTCAR( 10) = T2DGEO-READ;T2DGEO;OBLIG;BIN;LIT;SELAFIN-GEOM ; qgismesh.slf

 FORTRAN FILE
 MOTCAR( 11) = INUTILE;INUTILE;FACUL;ASC;LIT;FORTRAN ;

 STEERING FILE
 MOTCAR( 97) = INUTILE;T2DCAS;OBLIG;ASC;LIT;CAS ;

 BOUNDARY CONDITIONS FILE
 MOTCAR( 13) = T2DLIM-READ;T2DCLI;OBLIG;ASC;LIT;CONLIM ; boundaries.cli

 PREVIOUS COMPUTATION FILE
 MOTCAR( 17) = T2DPRE-READ;T2DPRE;FACUL;BIN;LIT;SELAFIN ;

 RESULTS FILE
 MOTCAR( 24) = T2DRES-WRITE;T2DRES;OBLIG;BIN;ECR;SELAFIN ; r2dsteady.slf

 AD NAMES OF DERIVATIVES
 VALUE NOT FOUND

 FORMATTED RESULTS FILE 1
 MOTCAR( 28) = T2DRF1-WRITE;T2DRF1;FACUL;ASC;ECR;SCAL ;

 BOTTOM TOPOGRAPHY FILE
 MOTCAR( 12) = T2DFON-READ;T2DFON;FACUL;ASC;LIT;PARAL ;

 TIDAL MODEL FILE FORMAT
 MOTCAR( 72)= SERAFIN

 BINARY DATA FILE 1
 MOTCAR(  4) = T2DBI1-READ;T2DBI1;FACUL;BIN;LIT;SELAFIN ;

 BINARY DATA FILE 2
 MOTCAR(  6) = T2DBI2-READ;T2DBI2;FACUL;BIN;LIT;PARAL ;

 FORMATTED DATA FILE 1
 MOTCAR(  7) = T2DFO1-READ;T2DFO1;FACUL;ASC;LIT;PARAL ;

 FORMATTED DATA FILE 2
 MOTCAR(  8) = T2DFO2-READ;T2DFO2;FACUL;ASC;LIT;PARAL ;

 FORMATTED RESULTS FILE 2
 MOTCAR( 29) = T2DRF2-WRITE;T2DRF2;FACUL;ASC;ECR;SCAL ;

 FORMATTED RESULTS FILE 3
 MOTCAR( 30) = T2DRF3-WRITE;T2DRF3;FACUL;ASC;ECR;SCAL ;

 NAMES OF CLANDESTINE VARIABLES
 VALUE NOT FOUND

 BINARY RESULTS FILE
 MOTCAR( 26) = T2DRBI-WRITE;T2DRBI;FACUL;BIN;ECR;PARAL ;

 FORMATTED RESULTS FILE
 MOTCAR( 27) = T2DRFO-WRITE;T2DRFO;FACUL;ASC;ECR;SCAL ;

 INITIAL CONDITIONS
 MOTCAR(  2)= ZERO DEPTH

 GEOMETRY FILE FORMAT
 MOTCAR(  9)= SERAFIN

 RESULTS FILE FORMAT
 MOTCAR( 23)= SERAFIN

 PREVIOUS COMPUTATION FILE FORMAT
 MOTCAR( 16)= SERAFIN

 FORMATTED RESULTS FILE 4
 MOTCAR( 31) = T2DRF4-WRITE;T2DRF4;FACUL;ASC;ECR;SCAL ;

 FORMATTED RESULTS FILE 5
 MOTCAR( 32) = T2DRF5-WRITE;T2DRF5;FACUL;ASC;ECR;SCAL ;

 FORMATTED RESULTS FILE 6
 MOTCAR( 33) = T2DRF6-WRITE;T2DRF6;FACUL;ASC;ECR;SCAL ;

 ASCII ATMOSPHERIC DATA FILE
 MOTCAR( 44) = T2ATMA-READ;T2ATMA;FACUL;ASC;LIT;SCAL ;

 BINARY ATMOSPHERIC DATA FILE
 MOTCAR( 45) = T2ATMB-READ;T2ATMB;FACUL;BIN;LIT;SELAFIN ;

 LAMBERT 93 CONVERSION FILE
 MOTCAR( 69) = NL93-READ;T2DL93;FACUL;ASC;LIT;SCAL ;

 EQUATIONS
 MOTCAR( 50)= SAINT-VENANT FE

 REFERENCE FILE
 MOTCAR( 15) = T2DREF-READ;T2DREF;FACUL;BIN;LIT;SELAFIN ;

 LIQUID BOUNDARIES FILE
 MOTCAR( 41) = T2DIMP-READ;T2DIMP;FACUL;ASC;LIT;PARAL ;

 WEIRS DISCHARGE OUTPUT FILE
 MOTCAR( 64) = T2DWOP-WRITE;T2DWOP;FACUL;ASC;ECR;WEIRS ;

 COUPLING WITH
 MOTCAR( 74)=

 BINARY ATMOSPHERIC DATA FILE FORMAT
 MOTCAR( 46)= SERAFIN

 RESTART FILE
 MOTCAR( 18) = T2DRST-WRITE;T2DRST;FACUL;BIN;ECR;SELAFIN ;

 RESTART FILE FORMAT
 MOTCAR( 19)= SERAFIND

 DROGUES INITIAL POSITIONING DATA FILE
 MOTCAR( 60) = T2DPLY-READ;T2DPLY;FACUL;ASC;LIT;PARAL ;

 FORMAT OF THE DROGUES POSITIONING DATA FILE
 MOTCAR( 61)= BKASCI2S

 NESTOR ACTION FILE
 MOTCAR( 93) = T2NACT-READ;T2NACT;FACUL;ASC;LIT;PARAL ;

 NESTOR POLYGON FILE
 MOTCAR( 94) = T2NPOL-READ;T2NPOL;FACUL;ASC;LIT;PARAL ;

 NESTOR SURFACE REFERENCE FILE
 MOTCAR( 95) = T2NREF-READ;T2NREF;FACUL;ASC;LIT;PARAL ;

 NESTOR RESTART FILE
 MOTCAR( 96) = T2NRST-READ;T2NRST;FACUL;ASC;LIT;PARAL ;

 PREVIOUS DROGUES FILE FORMAT
 MOTCAR( 59)= BKBINPCL

 DROGUES FILE FORMAT
 MOTCAR( 57)= TECPLOT

 PREVIOUS DROGUES FILE
 MOTCAR( 58) = T2DPLO-READ;T2DPLO;FACUL;BIN;LIT;SCAL ;

 GAIA STEERING FILE
 MOTCAR( 89)=

 ZONES FILE
 MOTCAR( 43) = T2DZFI-READ;T2DZFI;FACUL;ASC;LIT;ZONES ;

 PARAMETER ESTIMATION
 MOTCAR( 47)=

 NAMES OF POINTS
 VALUE NOT FOUND

 SISYPHE STEERING FILE
 MOTCAR( 88)=

 FRICTION DATA FILE
 MOTCAR( 42) = T2DCOF-READ;T2DCOF;FACUL;ASC;LIT;PARAL ;

 VOLUMES DELWAQ FILE
 MOTCAR( 81) = T2DDL1-WRITE;T2DDL1;FACUL;BIN;ECR;DELWAQPTS ;

 EXCHANGE AREAS DELWAQ FILE
 MOTCAR( 82) = T2DDL2-WRITE;T2DDL2;FACUL;BIN;ECR;DELWAQSEG ;

 VERTICAL FLUXES DELWAQ FILE
 MOTCAR( 83) = T2DDL3-WRITE;T2DDL3;FACUL;BIN;ECR;DELWAQSEG ;

 SALINITY DELWAQ FILE
 MOTCAR( 87) = T2DDL4-WRITE;T2DDL4;FACUL;BIN;ECR;DELWAQPTS ;

 BOTTOM SURFACES DELWAQ FILE
 MOTCAR( 80) = T2DDL5-WRITE;T2DDL5;FACUL;BIN;ECR;DELWAQMET ;

 EXCHANGES BETWEEN NODES DELWAQ FILE
 MOTCAR( 78) = T2DDL6-WRITE;T2DDL6;FACUL;BIN;ECR;DELWAQMET ;

 NODES DISTANCES DELWAQ FILE
 MOTCAR( 79) = T2DDL7-WRITE;T2DDL7;FACUL;BIN;ECR;DELWAQMET ;

 DELWAQ STEERING FILE
 MOTCAR( 77) = T2DL11-WRITE;T2DL11;FACUL;ASC;ECR;DELWAQHYD ;

 TEMPERATURE DELWAQ FILE
 MOTCAR( 86) = T2DDL8-WRITE;T2DDL8;FACUL;BIN;ECR;DELWAQPTS ;

 STAGE-DISCHARGE CURVES FILE
 MOTCAR( 40) = T2DMAB-READ;T2DMAB;FACUL;ASC;LIT;PARAL ;

 NAMES OF TRACERS
 VALUE NOT FOUND

 SOURCES FILE
 MOTCAR( 48) = T2DVEF-READ;T2DVEF;FACUL;ASC;LIT;PARAL ;

 VELOCITY DELWAQ FILE
 MOTCAR( 84) = T2DDL9-WRITE;T2DDL9;FACUL;BIN;ECR;DELWAQPTS ;

 DIFFUSIVITY DELWAQ FILE
 MOTCAR( 85) = T2DL10-WRITE;T2DL10;FACUL;BIN;ECR;DELWAQPTS ;

 REFERENCE FILE FORMAT
 MOTCAR( 14)= SERAFIN

 SECTIONS INPUT FILE
 MOTCAR( 34) = NSCS-READ;T2DSEC;FACUL;ASC;LIT;SECTION ;

 SECTIONS OUTPUT FILE
 MOTCAR( 35) = NSEO-WRITE;T2DSEO;FACUL;ASC;ECR;SCAL ;

 OIL SPILL STEERING FILE
 MOTCAR( 62) = NMIG-READ;T2DMIG;FACUL;ASC;LIT;PARAL ;

 TOMAWAC STEERING FILE
 MOTCAR( 90)=

 HARMONIC CONSTANTS FILE
 MOTCAR( 70) = NHAR-READWRITE;T2DHAR;FACUL;ASC;ECRLIT;PARAL ;

 TIDAL MODEL FILE
 MOTCAR( 71) = NTID-READ;T2DTID;FACUL;BIN;LIT;SCAL ;

 ASCII DATABASE FOR TIDE
 MOTCAR( 73) = NBDD-READ;T2DBDD;FACUL;ASC;LIT;PARAL ;

 BINARY DATABASE 1 FOR TIDE
 MOTCAR( 67) = NBB1-READ;T2DBB1;FACUL;BIN;LIT;SCAL ;

 BINARY DATABASE 2 FOR TIDE
 MOTCAR( 68) = NBB2-READ;T2DBB2;FACUL;BIN;LIT;SCAL ;

 WEIRS DATA FILE
 MOTCAR( 63) = T2DSEU-READ;T2DSEU;FACUL;ASC;LIT;WEIRS ;

 BINARY DROGUES FILE
 MOTCAR( 56) = T2DBLO-WRITE;T2DBLO;FACUL;BIN;ECR;SCAL ;

 CULVERTS DATA FILE
 MOTCAR( 65) = T2DBUS-READ;T2DBUS;FACUL;ASC;LIT;SCAL ;

 BREACHES DATA FILE
 MOTCAR( 66) = T2DBRC-READ;T2DBRC;FACUL;ASC;LIT;SCAL ;

 ASCII DROGUES FILE
 MOTCAR( 55) = T2DFLO-WRITE;T2DFLO;FACUL;ASC;ECR;SCAL ;

 WAQTEL STEERING FILE
 MOTCAR( 91)=

 KHIONE STEERING FILE
 MOTCAR( 92)=

 BINARY RESULTS FILE FORMAT
 MOTCAR( 25)= BIN

 BINARY DATA FILE 1 FORMAT
 MOTCAR(  3)= BIN

 BINARY DATA FILE 2 FORMAT
 MOTCAR(  5)= BIN

 NAMES OF PRIVATE VARIABLES
 VALUE NOT FOUND

 DICTIONARY
 MOTCAR( 98) = INUTILE;T2DDICO;OBLIG;ASC;LIT;DICO ; telemac2d.dico

 PARTITIONING TOOL
 MOTCAR( 99)= METIS

 FLUXLINE INPUT FILE
 MOTCAR( 36) = T2DFLX-READ;T2DFLX;FACUL;ASC;LIT;PARAL ;

 SOURCE REGIONS DATA FILE
 MOTCAR( 49) = T2DSDN-READ;T2DSDN;FACUL;ASC;LIT;PARAL ;

 DIFFERENT NUMBER OF PARALLEL PROCESSORS:
 DECLARED BEFORE (CASE OF COUPLING ?):           1
 TELEMAC-2D :           0
 VALUE            1  IS KEPT

                   ********************************************
                   *               LECDON:                    *
                   *        AFTER CALLING DAMOCLES            *
                   *        CHECKING OF DATA  READ            *
                   *         IN THE STEERING FILE             *
                   ********************************************

 EXITING LECDON. NAME OF THE STUDY:
 2d steady

 OPENING FILES FOR TELEMAC2D
 OPENING: T2DGEO-qgismesh.slf
 OPENING: T2DCLI-boundaries.cli
 OPENING: T2DRES-r2dsteady.slf

                          *****************************
                          *    MEMORY ORGANIZATION    *
                          *****************************

 READ_MESH_INFO: TITLE= new Selafin
            NUMBER OF ELEMENTS:    25007
            NUMBER OF POINTS:    12814

            TYPE OF ELEMENT: TRIANGLE
            TYPE OF BND ELEMENT: POINT

            SINGLE PRECISION FORMAT (R4)

 MXPTEL (BIEF) : MAXIMUM NUMBER OF ELEMENTS AROUND A POINT:   9
                 MAXIMUM NUMBER OF POINTS AROUND A POINT:   9
 USER_CORRXY (BIEF):NO MODIFICATION OF COORDINATES

 MESH: MESH   ALLOCATED

                     *************************************
                     *    END OF MEMORY ORGANIZATION:    *
                     *************************************

 INITIALIZING TELEMAC2D FOR
 INBIEF (BIEF): NOT A VECTOR MACHINE (ACCORDING TO YOUR DATA)
 STRCHE (BIEF): NO MODIFICATION OF FRICTION

 THERE IS     2 LIQUID BOUNDARIES:

 BOUNDARY    1 :
  BEGINS AT BOUNDARY POINT:        7 , WITH GLOBAL NUMBER:       144
  AND COORDINATES:     315152.3           5346010.
  ENDS AT BOUNDARY POINT:       25 , WITH GLOBAL NUMBER:        32
  AND COORDINATES:     315229.9           5345962.

 BOUNDARY    2 :
  BEGINS AT BOUNDARY POINT:      312 , WITH GLOBAL NUMBER:        34
  AND COORDINATES:     316899.1           5345987.
  ENDS AT BOUNDARY POINT:      324 , WITH GLOBAL NUMBER:         5
  AND COORDINATES:     316910.0           5346050.

 THERE IS     2 SOLID BOUNDARIES:

 BOUNDARY    1 :
  BEGINS AT BOUNDARY POINT:      324 , WITH GLOBAL NUMBER:         5
  AND COORDINATES:     316910.0           5346050.
  ENDS AT BOUNDARY POINT:        7 , WITH GLOBAL NUMBER:       144
  AND COORDINATES:     315152.3           5346010.

 BOUNDARY    2 :
  BEGINS AT BOUNDARY POINT:       25 , WITH GLOBAL NUMBER:        32
  AND COORDINATES:     315229.9           5345962.
  ENDS AT BOUNDARY POINT:      312 , WITH GLOBAL NUMBER:        34
  AND COORDINATES:     316899.1           5345987.

 CORFON (TELEMAC2D): NO MODIFICATION OF BOTTOM

================================================================================
 ITERATION        0    TIME:   0.0000 S
 TELEMAC2D INITIALIZED

================================================================================
 ITERATION       50    TIME:  50.0000 S
--------------------------------------------------------------------------------
                    DIFFUSION-PROPAGATION STEP
 CVTRVF_NERD_2 (SCHEME 13 OR 14):   9 ITERATIONS
 GRACJG (BIEF) :        7 ITERATIONS, RELATIVE PRECISION:   0.5295661E-04
 POSITIVE DEPTHS OBTAINED IN     9 ITERATIONS
--------------------------------------------------------------------------------
                          K-EPSILON MODEL
 CVTRVF_NERD_2 (SCHEME 13 OR 14):   9 ITERATIONS
 GRACJG (BIEF) :        6 ITERATIONS, RELATIVE PRECISION:   0.5062815E-10
 GRACJG (BIEF) :        5 ITERATIONS, RELATIVE PRECISION:   0.1257135E-09
--------------------------------------------------------------------------------
                       BALANCE OF WATER VOLUME
     VOLUME IN THE DOMAIN :    40840.41     M3
     FLUX BOUNDARY    1:     148.2051     M3/S  ( >0 : ENTERING  <0 : EXITING )
     FLUX BOUNDARY    2:    -297.6489     M3/S  ( >0 : ENTERING  <0 : EXITING )
     RELATIVE ERROR IN VOLUME AT T =        50.00     S :   -0.7766482E-15

================================================================================
 ITERATION      100    TIME:  1 MN  40.0000 S   (      100.0000 S)
 ILL-POSED PROBLEM, ENTERING FREE VELOCITY
 FOR EXAMPLE AT BOUNDARY POINT NUMBER          316
--------------------------------------------------------------------------------
                    DIFFUSION-PROPAGATION STEP
 CVTRVF_NERD_2 (SCHEME 13 OR 14):  12 ITERATIONS
 GRACJG (BIEF) :        6 ITERATIONS, RELATIVE PRECISION:   0.5190680E-04
 POSITIVE DEPTHS OBTAINED IN    13 ITERATIONS
--------------------------------------------------------------------------------
                          K-EPSILON MODEL
 CVTRVF_NERD_2 (SCHEME 13 OR 14):  12 ITERATIONS
 GRACJG (BIEF) :        4 ITERATIONS, RELATIVE PRECISION:   0.7025396E-09
 GRACJG (BIEF) :        4 ITERATIONS, RELATIVE PRECISION:   0.2574467E-09
--------------------------------------------------------------------------------
                       BALANCE OF WATER VOLUME
     VOLUME IN THE DOMAIN :    48408.71     M3
     FLUX BOUNDARY    1:     138.4053     M3/S  ( >0 : ENTERING  <0 : EXITING )
     FLUX BOUNDARY    2:    -81.57828     M3/S  ( >0 : ENTERING  <0 : EXITING )
     RELATIVE ERROR IN VOLUME AT T =        100.0     S :    0.2410126E-15

================================================================================
 ITERATION      150    TIME:  2 MN  30.0000 S   (      150.0000 S)
 ILL-POSED PROBLEM, ENTERING FREE VELOCITY
 FOR EXAMPLE AT BOUNDARY POINT NUMBER          318
--------------------------------------------------------------------------------
                    DIFFUSION-PROPAGATION STEP
 CVTRVF_NERD_2 (SCHEME 13 OR 14):  17 ITERATIONS
 GRACJG (BIEF) :        6 ITERATIONS, RELATIVE PRECISION:   0.4831413E-04
 POSITIVE DEPTHS OBTAINED IN    17 ITERATIONS
--------------------------------------------------------------------------------
                          K-EPSILON MODEL
 CVTRVF_NERD_2 (SCHEME 13 OR 14):  16 ITERATIONS
 GRACJG (BIEF) :        5 ITERATIONS, RELATIVE PRECISION:   0.8899808E-11
 GRACJG (BIEF) :        4 ITERATIONS, RELATIVE PRECISION:   0.6283510E-10
--------------------------------------------------------------------------------
                       BALANCE OF WATER VOLUME
     VOLUME IN THE DOMAIN :    55221.33     M3
     FLUX BOUNDARY    1:     121.3928     M3/S  ( >0 : ENTERING  <0 : EXITING )
     FLUX BOUNDARY    2:    -2.135216     M3/S  ( >0 : ENTERING  <0 : EXITING )
     RELATIVE ERROR IN VOLUME AT T =        150.0     S :   -0.1559760E-14

================================================================================
 ITERATION      200    TIME:  3 MN  20.0000 S   (      200.0000 S)
 ILL-POSED PROBLEM, ENTERING FREE VELOCITY
 FOR EXAMPLE AT BOUNDARY POINT NUMBER          319
--------------------------------------------------------------------------------
                    DIFFUSION-PROPAGATION STEP
 CVTRVF_NERD_2 (SCHEME 13 OR 14):  17 ITERATIONS
 GRACJG (BIEF) :        6 ITERATIONS, RELATIVE PRECISION:   0.3619557E-04
 POSITIVE DEPTHS OBTAINED IN    17 ITERATIONS
--------------------------------------------------------------------------------
                          K-EPSILON MODEL
 CVTRVF_NERD_2 (SCHEME 13 OR 14):  17 ITERATIONS
 GRACJG (BIEF) :        4 ITERATIONS, RELATIVE PRECISION:   0.2893400E-11
 GRACJG (BIEF) :        3 ITERATIONS, RELATIVE PRECISION:   0.1643367E-09
--------------------------------------------------------------------------------
                       BALANCE OF WATER VOLUME
     VOLUME IN THE DOMAIN :    61100.34     M3
     FLUX BOUNDARY    1:     106.2739     M3/S  ( >0 : ENTERING  <0 : EXITING )
     FLUX BOUNDARY    2:     11.90464     M3/S  ( >0 : ENTERING  <0 : EXITING )
     RELATIVE ERROR IN VOLUME AT T =        200.0     S :   -0.4561868E-14

================================================================================
 ITERATION      250    TIME:  4 MN  10.0000 S   (      250.0000 S)
 ILL-POSED PROBLEM, ENTERING FREE VELOCITY
 FOR EXAMPLE AT BOUNDARY POINT NUMBER          319
--------------------------------------------------------------------------------
                    DIFFUSION-PROPAGATION STEP
 CVTRVF_NERD_2 (SCHEME 13 OR 14):  20 ITERATIONS
 GRACJG (BIEF) :        6 ITERATIONS, RELATIVE PRECISION:   0.3382474E-04
 POSITIVE DEPTHS OBTAINED IN    20 ITERATIONS
--------------------------------------------------------------------------------
                          K-EPSILON MODEL
 CVTRVF_NERD_2 (SCHEME 13 OR 14):  20 ITERATIONS
 GRACJG (BIEF) :        3 ITERATIONS, RELATIVE PRECISION:   0.1747712E-10
 GRACJG (BIEF) :        3 ITERATIONS, RELATIVE PRECISION:   0.1089216E-11
--------------------------------------------------------------------------------
                       BALANCE OF WATER VOLUME
     VOLUME IN THE DOMAIN :    66398.92     M3
     FLUX BOUNDARY    1:     96.38516     M3/S  ( >0 : ENTERING  <0 : EXITING )
     FLUX BOUNDARY    2:     11.49621     M3/S  ( >0 : ENTERING  <0 : EXITING )
     RELATIVE ERROR IN VOLUME AT T =        250.0     S :   -0.9887833E-15

================================================================================
 ITERATION      300    TIME:  5 MN   0.0000 S   (      300.0000 S)
 ILL-POSED PROBLEM, ENTERING FREE VELOCITY
 FOR EXAMPLE AT BOUNDARY POINT NUMBER          319
--------------------------------------------------------------------------------
                    DIFFUSION-PROPAGATION STEP
 CVTRVF_NERD_2 (SCHEME 13 OR 14):  11 ITERATIONS
 GRACJG (BIEF) :        6 ITERATIONS, RELATIVE PRECISION:   0.2935625E-04
 POSITIVE DEPTHS OBTAINED IN    11 ITERATIONS
--------------------------------------------------------------------------------
                          K-EPSILON MODEL
 CVTRVF_NERD_2 (SCHEME 13 OR 14):  11 ITERATIONS
 GRACJG (BIEF) :        3 ITERATIONS, RELATIVE PRECISION:   0.8100727E-11
 GRACJG (BIEF) :        3 ITERATIONS, RELATIVE PRECISION:   0.8540847E-12
--------------------------------------------------------------------------------
                       BALANCE OF WATER VOLUME
     VOLUME IN THE DOMAIN :    71342.07     M3
     FLUX BOUNDARY    1:     89.88962     M3/S  ( >0 : ENTERING  <0 : EXITING )
     FLUX BOUNDARY    2:     9.676256     M3/S  ( >0 : ENTERING  <0 : EXITING )
     RELATIVE ERROR IN VOLUME AT T =        300.0     S :    0.1553707E-16

================================================================================
 ITERATION      350    TIME:  5 MN  50.0000 S   (      350.0000 S)
 ILL-POSED PROBLEM, ENTERING FREE VELOCITY
 FOR EXAMPLE AT BOUNDARY POINT NUMBER          319
--------------------------------------------------------------------------------
                    DIFFUSION-PROPAGATION STEP
 CVTRVF_NERD_2 (SCHEME 13 OR 14):  12 ITERATIONS
 GRACJG (BIEF) :        5 ITERATIONS, ABSOLUTE PRECISION:   0.8277842E-04
 POSITIVE DEPTHS OBTAINED IN    12 ITERATIONS
--------------------------------------------------------------------------------
                          K-EPSILON MODEL
 CVTRVF_NERD_2 (SCHEME 13 OR 14):  12 ITERATIONS
 GRACJG (BIEF) :        4 ITERATIONS, RELATIVE PRECISION:   0.1383796E-09
 GRACJG (BIEF) :        3 ITERATIONS, RELATIVE PRECISION:   0.9760920E-09
--------------------------------------------------------------------------------
                       BALANCE OF WATER VOLUME
     VOLUME IN THE DOMAIN :    76090.00     M3
     FLUX BOUNDARY    1:     87.50518     M3/S  ( >0 : ENTERING  <0 : EXITING )
     FLUX BOUNDARY    2:     8.136044     M3/S  ( >0 : ENTERING  <0 : EXITING )
     RELATIVE ERROR IN VOLUME AT T =        350.0     S :    0.1286802E-15

================================================================================
 ITERATION      400    TIME:  6 MN  40.0000 S   (      400.0000 S)
 ILL-POSED PROBLEM, ENTERING FREE VELOCITY
 FOR EXAMPLE AT BOUNDARY POINT NUMBER          320
--------------------------------------------------------------------------------
                    DIFFUSION-PROPAGATION STEP
 CVTRVF_NERD_2 (SCHEME 13 OR 14):  11 ITERATIONS
 GRACJG (BIEF) :        5 ITERATIONS, RELATIVE PRECISION:   0.3449988E-04
 POSITIVE DEPTHS OBTAINED IN    11 ITERATIONS
--------------------------------------------------------------------------------
                          K-EPSILON MODEL
 CVTRVF_NERD_2 (SCHEME 13 OR 14):  12 ITERATIONS
 GRACJG (BIEF) :        3 ITERATIONS, RELATIVE PRECISION:   0.6139931E-09
 GRACJG (BIEF) :        3 ITERATIONS, RELATIVE PRECISION:   0.2317331E-10
--------------------------------------------------------------------------------
                       BALANCE OF WATER VOLUME
     VOLUME IN THE DOMAIN :    80777.88     M3
     FLUX BOUNDARY    1:     86.72105     M3/S  ( >0 : ENTERING  <0 : EXITING )
     FLUX BOUNDARY    2:     7.439988     M3/S  ( >0 : ENTERING  <0 : EXITING )
     RELATIVE ERROR IN VOLUME AT T =        400.0     S :    0.4881921E-15

================================================================================
 ITERATION      450    TIME:  7 MN  30.0000 S   (      450.0000 S)
 ILL-POSED PROBLEM, ENTERING FREE VELOCITY
 FOR EXAMPLE AT BOUNDARY POINT NUMBER          320
--------------------------------------------------------------------------------
                    DIFFUSION-PROPAGATION STEP
 CVTRVF_NERD_2 (SCHEME 13 OR 14):  11 ITERATIONS
 GRACJG (BIEF) :        5 ITERATIONS, RELATIVE PRECISION:   0.3601546E-04
 POSITIVE DEPTHS OBTAINED IN    11 ITERATIONS
--------------------------------------------------------------------------------
                          K-EPSILON MODEL
 CVTRVF_NERD_2 (SCHEME 13 OR 14):  11 ITERATIONS
 GRACJG (BIEF) :        3 ITERATIONS, RELATIVE PRECISION:   0.2391477E-11
 GRACJG (BIEF) :        2 ITERATIONS, RELATIVE PRECISION:   0.6078009E-09
--------------------------------------------------------------------------------
                       BALANCE OF WATER VOLUME
     VOLUME IN THE DOMAIN :    85438.00     M3
     FLUX BOUNDARY    1:     85.41768     M3/S  ( >0 : ENTERING  <0 : EXITING )
     FLUX BOUNDARY    2:     7.095327     M3/S  ( >0 : ENTERING  <0 : EXITING )
     RELATIVE ERROR IN VOLUME AT T =        450.0     S :    0.7975496E-15

================================================================================
 ITERATION      500    TIME:  8 MN  20.0000 S   (      500.0000 S)
 ILL-POSED PROBLEM, ENTERING FREE VELOCITY
 FOR EXAMPLE AT BOUNDARY POINT NUMBER          320
--------------------------------------------------------------------------------
                    DIFFUSION-PROPAGATION STEP
 CVTRVF_NERD_2 (SCHEME 13 OR 14):  16 ITERATIONS
 GRACJG (BIEF) :        5 ITERATIONS, RELATIVE PRECISION:   0.4600362E-04
 POSITIVE DEPTHS OBTAINED IN    15 ITERATIONS
--------------------------------------------------------------------------------
                          K-EPSILON MODEL
 CVTRVF_NERD_2 (SCHEME 13 OR 14):  15 ITERATIONS
 GRACJG (BIEF) :        3 ITERATIONS, RELATIVE PRECISION:   0.1550458E-10
 GRACJG (BIEF) :        3 ITERATIONS, RELATIVE PRECISION:   0.9149348E-12
--------------------------------------------------------------------------------
                       BALANCE OF WATER VOLUME
     VOLUME IN THE DOMAIN :    89353.70     M3
     FLUX BOUNDARY    1:     49.65156     M3/S  ( >0 : ENTERING  <0 : EXITING )
     FLUX BOUNDARY    2:     6.990964     M3/S  ( >0 : ENTERING  <0 : EXITING )
     RELATIVE ERROR IN VOLUME AT T =        500.0     S :   -0.3817767E-15

================================================================================
 ITERATION      550    TIME:  9 MN  10.0000 S   (      550.0000 S)
 ILL-POSED PROBLEM, ENTERING FREE VELOCITY
 FOR EXAMPLE AT BOUNDARY POINT NUMBER          320
--------------------------------------------------------------------------------
                    DIFFUSION-PROPAGATION STEP
 CVTRVF_NERD_2 (SCHEME 13 OR 14):  18 ITERATIONS
 GRACJG (BIEF) :        4 ITERATIONS, RELATIVE PRECISION:   0.8414095E-04
 POSITIVE DEPTHS OBTAINED IN    17 ITERATIONS
--------------------------------------------------------------------------------
                          K-EPSILON MODEL
 CVTRVF_NERD_2 (SCHEME 13 OR 14):  16 ITERATIONS
 GRACJG (BIEF) :        3 ITERATIONS, RELATIVE PRECISION:   0.8791958E-12
 GRACJG (BIEF) :        2 ITERATIONS, RELATIVE PRECISION:   0.5392801E-09
--------------------------------------------------------------------------------
                       BALANCE OF WATER VOLUME
     VOLUME IN THE DOMAIN :    91985.67     M3
     FLUX BOUNDARY    1:     39.69824     M3/S  ( >0 : ENTERING  <0 : EXITING )
     FLUX BOUNDARY    2:     6.873929     M3/S  ( >0 : ENTERING  <0 : EXITING )
     RELATIVE ERROR IN VOLUME AT T =        550.0     S :    0.1719086E-14

================================================================================
 ITERATION      600    TIME: 10 MN   0.0000 S   (      600.0000 S)
 ILL-POSED PROBLEM, ENTERING FREE VELOCITY
 FOR EXAMPLE AT BOUNDARY POINT NUMBER          320
--------------------------------------------------------------------------------
                    DIFFUSION-PROPAGATION STEP
 CVTRVF_NERD_2 (SCHEME 13 OR 14):  12 ITERATIONS
 GRACJG (BIEF) :        5 ITERATIONS, RELATIVE PRECISION:   0.3324204E-04
 POSITIVE DEPTHS OBTAINED IN    12 ITERATIONS
--------------------------------------------------------------------------------
                          K-EPSILON MODEL
 CVTRVF_NERD_2 (SCHEME 13 OR 14):  14 ITERATIONS
 GRACJG (BIEF) :        3 ITERATIONS, RELATIVE PRECISION:   0.1153266E-11
 GRACJG (BIEF) :        2 ITERATIONS, RELATIVE PRECISION:   0.5715512E-09
--------------------------------------------------------------------------------
                       BALANCE OF WATER VOLUME
     VOLUME IN THE DOMAIN :    94175.89     M3
     FLUX BOUNDARY    1:     35.16065     M3/S  ( >0 : ENTERING  <0 : EXITING )
     FLUX BOUNDARY    2:     6.755660     M3/S  ( >0 : ENTERING  <0 : EXITING )
     RELATIVE ERROR IN VOLUME AT T =        600.0     S :   -0.2118593E-14

================================================================================
 ITERATION      650    TIME: 10 MN  50.0000 S   (      650.0000 S)
 ILL-POSED PROBLEM, ENTERING FREE VELOCITY
 FOR EXAMPLE AT BOUNDARY POINT NUMBER          320
--------------------------------------------------------------------------------
                    DIFFUSION-PROPAGATION STEP
 CVTRVF_NERD_2 (SCHEME 13 OR 14):  14 ITERATIONS
 GRACJG (BIEF) :        5 ITERATIONS, RELATIVE PRECISION:   0.4364162E-04
 POSITIVE DEPTHS OBTAINED IN    14 ITERATIONS
--------------------------------------------------------------------------------
                          K-EPSILON MODEL
 CVTRVF_NERD_2 (SCHEME 13 OR 14):  14 ITERATIONS
 GRACJG (BIEF) :        3 ITERATIONS, RELATIVE PRECISION:   0.2716121E-11
 GRACJG (BIEF) :        2 ITERATIONS, RELATIVE PRECISION:   0.3606945E-09
--------------------------------------------------------------------------------
                       BALANCE OF WATER VOLUME
     VOLUME IN THE DOMAIN :    96179.92     M3
     FLUX BOUNDARY    1:     32.35907     M3/S  ( >0 : ENTERING  <0 : EXITING )
     FLUX BOUNDARY    2:     6.727969     M3/S  ( >0 : ENTERING  <0 : EXITING )
     RELATIVE ERROR IN VOLUME AT T =        650.0     S :    0.6111057E-15

================================================================================
 ITERATION      700    TIME: 11 MN  40.0000 S   (      700.0000 S)
 ILL-POSED PROBLEM, ENTERING FREE VELOCITY
 FOR EXAMPLE AT BOUNDARY POINT NUMBER          320
--------------------------------------------------------------------------------
                    DIFFUSION-PROPAGATION STEP
 CVTRVF_NERD_2 (SCHEME 13 OR 14):  22 ITERATIONS
 GRACJG (BIEF) :        5 ITERATIONS, RELATIVE PRECISION:   0.6030901E-04
 POSITIVE DEPTHS OBTAINED IN    22 ITERATIONS
--------------------------------------------------------------------------------
                          K-EPSILON MODEL
 CVTRVF_NERD_2 (SCHEME 13 OR 14):  22 ITERATIONS
 GRACJG (BIEF) :        3 ITERATIONS, RELATIVE PRECISION:   0.5143384E-11
 GRACJG (BIEF) :        2 ITERATIONS, RELATIVE PRECISION:   0.2264316E-09
--------------------------------------------------------------------------------
                       BALANCE OF WATER VOLUME
     VOLUME IN THE DOMAIN :    98076.85     M3
     FLUX BOUNDARY    1:     30.90690     M3/S  ( >0 : ENTERING  <0 : EXITING )
     FLUX BOUNDARY    2:     6.751489     M3/S  ( >0 : ENTERING  <0 : EXITING )
     RELATIVE ERROR IN VOLUME AT T =        700.0     S :   -0.9949222E-15

================================================================================
 ITERATION      750    TIME: 12 MN  30.0000 S   (      750.0000 S)
 ILL-POSED PROBLEM, ENTERING FREE VELOCITY
 FOR EXAMPLE AT BOUNDARY POINT NUMBER          321
--------------------------------------------------------------------------------
                    DIFFUSION-PROPAGATION STEP
 CVTRVF_NERD_2 (SCHEME 13 OR 14):  16 ITERATIONS
 GRACJG (BIEF) :        5 ITERATIONS, ABSOLUTE PRECISION:   0.4540464E-04
 POSITIVE DEPTHS OBTAINED IN    16 ITERATIONS
--------------------------------------------------------------------------------
                          K-EPSILON MODEL
 CVTRVF_NERD_2 (SCHEME 13 OR 14):  16 ITERATIONS
 GRACJG (BIEF) :        3 ITERATIONS, RELATIVE PRECISION:   0.4551612E-11
 GRACJG (BIEF) :        2 ITERATIONS, RELATIVE PRECISION:   0.1500448E-09
--------------------------------------------------------------------------------
                       BALANCE OF WATER VOLUME
     VOLUME IN THE DOMAIN :    100031.7     M3
     FLUX BOUNDARY    1:     33.54627     M3/S  ( >0 : ENTERING  <0 : EXITING )
     FLUX BOUNDARY    2:     6.760696     M3/S  ( >0 : ENTERING  <0 : EXITING )
     RELATIVE ERROR IN VOLUME AT T =        750.0     S :   -0.2698497E-14

================================================================================
 ITERATION      800    TIME: 13 MN  20.0000 S   (      800.0000 S)
 ILL-POSED PROBLEM, ENTERING FREE VELOCITY
 FOR EXAMPLE AT BOUNDARY POINT NUMBER          321
--------------------------------------------------------------------------------
                    DIFFUSION-PROPAGATION STEP
 CVTRVF_NERD_2 (SCHEME 13 OR 14):  16 ITERATIONS
 GRACJG (BIEF) :        4 ITERATIONS, ABSOLUTE PRECISION:   0.9204397E-04
 POSITIVE DEPTHS OBTAINED IN    16 ITERATIONS
--------------------------------------------------------------------------------
                          K-EPSILON MODEL
 CVTRVF_NERD_2 (SCHEME 13 OR 14):  16 ITERATIONS
 GRACJG (BIEF) :        3 ITERATIONS, RELATIVE PRECISION:   0.3872851E-11
 GRACJG (BIEF) :        2 ITERATIONS, RELATIVE PRECISION:   0.9872199E-10
--------------------------------------------------------------------------------
                       BALANCE OF WATER VOLUME
     VOLUME IN THE DOMAIN :    102071.2     M3
     FLUX BOUNDARY    1:     34.69789     M3/S  ( >0 : ENTERING  <0 : EXITING )
     FLUX BOUNDARY    2:     6.743996     M3/S  ( >0 : ENTERING  <0 : EXITING )
     RELATIVE ERROR IN VOLUME AT T =        800.0     S :   -0.2807750E-14

================================================================================
 ITERATION      850    TIME: 14 MN  10.0000 S   (      850.0000 S)
 ILL-POSED PROBLEM, ENTERING FREE VELOCITY
 FOR EXAMPLE AT BOUNDARY POINT NUMBER          321
--------------------------------------------------------------------------------
                    DIFFUSION-PROPAGATION STEP
 CVTRVF_NERD_2 (SCHEME 13 OR 14):  22 ITERATIONS
 GRACJG (BIEF) :        5 ITERATIONS, ABSOLUTE PRECISION:   0.3295495E-04
 POSITIVE DEPTHS OBTAINED IN    22 ITERATIONS
--------------------------------------------------------------------------------
                          K-EPSILON MODEL
 CVTRVF_NERD_2 (SCHEME 13 OR 14):  22 ITERATIONS
 GRACJG (BIEF) :        3 ITERATIONS, RELATIVE PRECISION:   0.7945490E-11
 GRACJG (BIEF) :        2 ITERATIONS, RELATIVE PRECISION:   0.7508296E-10
--------------------------------------------------------------------------------
                       BALANCE OF WATER VOLUME
     VOLUME IN THE DOMAIN :    104156.3     M3
     FLUX BOUNDARY    1:     35.00454     M3/S  ( >0 : ENTERING  <0 : EXITING )
     FLUX BOUNDARY    2:     6.733323     M3/S  ( >0 : ENTERING  <0 : EXITING )
     RELATIVE ERROR IN VOLUME AT T =        850.0     S :   -0.2986418E-14

================================================================================
 ITERATION      900    TIME: 15 MN   0.0000 S   (      900.0000 S)
 ILL-POSED PROBLEM, ENTERING FREE VELOCITY
 FOR EXAMPLE AT BOUNDARY POINT NUMBER          321
--------------------------------------------------------------------------------
                    DIFFUSION-PROPAGATION STEP
 CVTRVF_NERD_2 (SCHEME 13 OR 14):  22 ITERATIONS
 GRACJG (BIEF) :        5 ITERATIONS, ABSOLUTE PRECISION:   0.3570094E-04
 POSITIVE DEPTHS OBTAINED IN    22 ITERATIONS
--------------------------------------------------------------------------------
                          K-EPSILON MODEL
 CVTRVF_NERD_2 (SCHEME 13 OR 14):  22 ITERATIONS
 GRACJG (BIEF) :        3 ITERATIONS, RELATIVE PRECISION:   0.1112251E-10
 GRACJG (BIEF) :        2 ITERATIONS, RELATIVE PRECISION:   0.6234978E-10
--------------------------------------------------------------------------------
                       BALANCE OF WATER VOLUME
     VOLUME IN THE DOMAIN :    106263.1     M3
     FLUX BOUNDARY    1:     35.54934     M3/S  ( >0 : ENTERING  <0 : EXITING )
     FLUX BOUNDARY    2:     6.746453     M3/S  ( >0 : ENTERING  <0 : EXITING )
     RELATIVE ERROR IN VOLUME AT T =        900.0     S :    0.6527229E-14

================================================================================
 ITERATION      950    TIME: 15 MN  50.0000 S   (      950.0000 S)
 ILL-POSED PROBLEM, ENTERING FREE VELOCITY
 FOR EXAMPLE AT BOUNDARY POINT NUMBER          321
--------------------------------------------------------------------------------
                    DIFFUSION-PROPAGATION STEP
 CVTRVF_NERD_2 (SCHEME 13 OR 14):  22 ITERATIONS
 GRACJG (BIEF) :        4 ITERATIONS, ABSOLUTE PRECISION:   0.6018846E-04
 POSITIVE DEPTHS OBTAINED IN    22 ITERATIONS
--------------------------------------------------------------------------------
                          K-EPSILON MODEL
 CVTRVF_NERD_2 (SCHEME 13 OR 14):  22 ITERATIONS
 GRACJG (BIEF) :        3 ITERATIONS, RELATIVE PRECISION:   0.9146489E-11
 GRACJG (BIEF) :        2 ITERATIONS, RELATIVE PRECISION:   0.1110709E-09
--------------------------------------------------------------------------------
                       BALANCE OF WATER VOLUME
     VOLUME IN THE DOMAIN :    108386.8     M3
     FLUX BOUNDARY    1:     35.62531     M3/S  ( >0 : ENTERING  <0 : EXITING )
     FLUX BOUNDARY    2:     6.757373     M3/S  ( >0 : ENTERING  <0 : EXITING )
     RELATIVE ERROR IN VOLUME AT T =        950.0     S :    0.2664860E-15

================================================================================
 ITERATION     1000    TIME: 16 MN  40.0000 S   (     1000.0000 S)
 ILL-POSED PROBLEM, ENTERING FREE VELOCITY
 FOR EXAMPLE AT BOUNDARY POINT NUMBER          321
--------------------------------------------------------------------------------
                    DIFFUSION-PROPAGATION STEP
 CVTRVF_NERD_2 (SCHEME 13 OR 14):  18 ITERATIONS
 GRACJG (BIEF) :        4 ITERATIONS, ABSOLUTE PRECISION:   0.9954858E-04
 POSITIVE DEPTHS OBTAINED IN    18 ITERATIONS
--------------------------------------------------------------------------------
                          K-EPSILON MODEL
 CVTRVF_NERD_2 (SCHEME 13 OR 14):  18 ITERATIONS
 GRACJG (BIEF) :        3 ITERATIONS, RELATIVE PRECISION:   0.8587220E-11
 GRACJG (BIEF) :        2 ITERATIONS, RELATIVE PRECISION:   0.1277170E-09
--------------------------------------------------------------------------------
                       BALANCE OF WATER VOLUME
     VOLUME IN THE DOMAIN :    110494.7     M3
     FLUX BOUNDARY    1:     35.17966     M3/S  ( >0 : ENTERING  <0 : EXITING )
     FLUX BOUNDARY    2:     6.756135     M3/S  ( >0 : ENTERING  <0 : EXITING )
     RELATIVE ERROR IN VOLUME AT T =        1000.     S :    0.1008890E-14

================================================================================
 ITERATION     1050    TIME: 17 MN  30.0000 S   (     1050.0000 S)
 ILL-POSED PROBLEM, ENTERING FREE VELOCITY
 FOR EXAMPLE AT BOUNDARY POINT NUMBER          321
--------------------------------------------------------------------------------
                    DIFFUSION-PROPAGATION STEP
 CVTRVF_NERD_2 (SCHEME 13 OR 14):  16 ITERATIONS
 GRACJG (BIEF) :        4 ITERATIONS, ABSOLUTE PRECISION:   0.7841121E-04
 POSITIVE DEPTHS OBTAINED IN    16 ITERATIONS
--------------------------------------------------------------------------------
                          K-EPSILON MODEL
 CVTRVF_NERD_2 (SCHEME 13 OR 14):  16 ITERATIONS
 GRACJG (BIEF) :        3 ITERATIONS, RELATIVE PRECISION:   0.2987166E-10
 GRACJG (BIEF) :        2 ITERATIONS, RELATIVE PRECISION:   0.1695299E-09
--------------------------------------------------------------------------------
                       BALANCE OF WATER VOLUME
     VOLUME IN THE DOMAIN :    112583.7     M3
     FLUX BOUNDARY    1:     34.79638     M3/S  ( >0 : ENTERING  <0 : EXITING )
     FLUX BOUNDARY    2:     6.763286     M3/S  ( >0 : ENTERING  <0 : EXITING )
     RELATIVE ERROR IN VOLUME AT T =        1050.     S :    0.5891542E-15

================================================================================
 ITERATION     1100    TIME: 18 MN  20.0000 S   (     1100.0000 S)
 ILL-POSED PROBLEM, ENTERING FREE VELOCITY
 FOR EXAMPLE AT BOUNDARY POINT NUMBER          321
--------------------------------------------------------------------------------
                    DIFFUSION-PROPAGATION STEP
 CVTRVF_NERD_2 (SCHEME 13 OR 14):  17 ITERATIONS
 GRACJG (BIEF) :        4 ITERATIONS, ABSOLUTE PRECISION:   0.3327816E-04
 POSITIVE DEPTHS OBTAINED IN    17 ITERATIONS
--------------------------------------------------------------------------------
                          K-EPSILON MODEL
 CVTRVF_NERD_2 (SCHEME 13 OR 14):  17 ITERATIONS
 GRACJG (BIEF) :        3 ITERATIONS, RELATIVE PRECISION:   0.2190764E-10
 GRACJG (BIEF) :        2 ITERATIONS, RELATIVE PRECISION:   0.1668545E-09
--------------------------------------------------------------------------------
                       BALANCE OF WATER VOLUME
     VOLUME IN THE DOMAIN :    114659.1     M3
     FLUX BOUNDARY    1:     34.59145     M3/S  ( >0 : ENTERING  <0 : EXITING )
     FLUX BOUNDARY    2:     6.771196     M3/S  ( >0 : ENTERING  <0 : EXITING )
     RELATIVE ERROR IN VOLUME AT T =        1100.     S :   -0.1207734E-14

================================================================================
 ITERATION     1150    TIME: 19 MN  10.0000 S   (     1150.0000 S)
 ILL-POSED PROBLEM, ENTERING FREE VELOCITY
 FOR EXAMPLE AT BOUNDARY POINT NUMBER          321
--------------------------------------------------------------------------------
                    DIFFUSION-PROPAGATION STEP
 CVTRVF_NERD_2 (SCHEME 13 OR 14):  17 ITERATIONS
 GRACJG (BIEF) :        4 ITERATIONS, ABSOLUTE PRECISION:   0.4270780E-04
 POSITIVE DEPTHS OBTAINED IN    17 ITERATIONS
--------------------------------------------------------------------------------
                          K-EPSILON MODEL
 CVTRVF_NERD_2 (SCHEME 13 OR 14):  17 ITERATIONS
 GRACJG (BIEF) :        3 ITERATIONS, RELATIVE PRECISION:   0.1153062E-10
 GRACJG (BIEF) :        2 ITERATIONS, RELATIVE PRECISION:   0.3076467E-09
--------------------------------------------------------------------------------
                       BALANCE OF WATER VOLUME
     VOLUME IN THE DOMAIN :    116727.9     M3
     FLUX BOUNDARY    1:     34.61997     M3/S  ( >0 : ENTERING  <0 : EXITING )
     FLUX BOUNDARY    2:     6.780692     M3/S  ( >0 : ENTERING  <0 : EXITING )
     RELATIVE ERROR IN VOLUME AT T =        1150.     S :    0.5964818E-15

================================================================================
 ITERATION     1200    TIME: 20 MN   0.0000 S   (     1200.0000 S)
 ILL-POSED PROBLEM, ENTERING FREE VELOCITY
 FOR EXAMPLE AT BOUNDARY POINT NUMBER          321
--------------------------------------------------------------------------------
                    DIFFUSION-PROPAGATION STEP
 CVTRVF_NERD_2 (SCHEME 13 OR 14):  17 ITERATIONS
 GRACJG (BIEF) :        4 ITERATIONS, ABSOLUTE PRECISION:   0.5325432E-04
 POSITIVE DEPTHS OBTAINED IN    17 ITERATIONS
--------------------------------------------------------------------------------
                          K-EPSILON MODEL
 CVTRVF_NERD_2 (SCHEME 13 OR 14):  17 ITERATIONS
 GRACJG (BIEF) :        3 ITERATIONS, RELATIVE PRECISION:   0.1585173E-10
 GRACJG (BIEF) :        2 ITERATIONS, RELATIVE PRECISION:   0.2349555E-09
--------------------------------------------------------------------------------
                       BALANCE OF WATER VOLUME
     VOLUME IN THE DOMAIN :    118804.0     M3
     FLUX BOUNDARY    1:     34.79605     M3/S  ( >0 : ENTERING  <0 : EXITING )
     FLUX BOUNDARY    2:     6.786179     M3/S  ( >0 : ENTERING  <0 : EXITING )
     RELATIVE ERROR IN VOLUME AT T =        1200.     S :    0.2935376E-15

================================================================================
 ITERATION     1250    TIME: 20 MN  50.0000 S   (     1250.0000 S)
 ILL-POSED PROBLEM, ENTERING FREE VELOCITY
 FOR EXAMPLE AT BOUNDARY POINT NUMBER          321
--------------------------------------------------------------------------------
                    DIFFUSION-PROPAGATION STEP
 CVTRVF_NERD_2 (SCHEME 13 OR 14):  17 ITERATIONS
 GRACJG (BIEF) :        4 ITERATIONS, ABSOLUTE PRECISION:   0.7542527E-04
 POSITIVE DEPTHS OBTAINED IN    17 ITERATIONS
--------------------------------------------------------------------------------
                          K-EPSILON MODEL
 CVTRVF_NERD_2 (SCHEME 13 OR 14):  17 ITERATIONS
 GRACJG (BIEF) :        3 ITERATIONS, RELATIVE PRECISION:   0.3211514E-10
 GRACJG (BIEF) :        3 ITERATIONS, RELATIVE PRECISION:   0.1060048E-11
--------------------------------------------------------------------------------
                       BALANCE OF WATER VOLUME
     VOLUME IN THE DOMAIN :    120893.1     M3
     FLUX BOUNDARY    1:     35.12326     M3/S  ( >0 : ENTERING  <0 : EXITING )
     FLUX BOUNDARY    2:     6.789947     M3/S  ( >0 : ENTERING  <0 : EXITING )
     RELATIVE ERROR IN VOLUME AT T =        1250.     S :   -0.1027260E-14

================================================================================
 ITERATION     1300    TIME: 21 MN  40.0000 S   (     1300.0000 S)
 ILL-POSED PROBLEM, ENTERING FREE VELOCITY
 FOR EXAMPLE AT BOUNDARY POINT NUMBER          321
--------------------------------------------------------------------------------
                    DIFFUSION-PROPAGATION STEP
 CVTRVF_NERD_2 (SCHEME 13 OR 14):  17 ITERATIONS
 GRACJG (BIEF) :        4 ITERATIONS, ABSOLUTE PRECISION:   0.6940545E-04
 POSITIVE DEPTHS OBTAINED IN    17 ITERATIONS
--------------------------------------------------------------------------------
                          K-EPSILON MODEL
 CVTRVF_NERD_2 (SCHEME 13 OR 14):  17 ITERATIONS
 GRACJG (BIEF) :        3 ITERATIONS, RELATIVE PRECISION:   0.5736397E-11
 GRACJG (BIEF) :        2 ITERATIONS, RELATIVE PRECISION:   0.1407801E-09
--------------------------------------------------------------------------------
                       BALANCE OF WATER VOLUME
     VOLUME IN THE DOMAIN :    122994.0     M3
     FLUX BOUNDARY    1:     35.27567     M3/S  ( >0 : ENTERING  <0 : EXITING )
     FLUX BOUNDARY    2:     6.798900     M3/S  ( >0 : ENTERING  <0 : EXITING )
     RELATIVE ERROR IN VOLUME AT T =        1300.     S :   -0.1365349E-14

================================================================================
 ITERATION     1350    TIME: 22 MN  30.0000 S   (     1350.0000 S)
 ILL-POSED PROBLEM, ENTERING FREE VELOCITY
 FOR EXAMPLE AT BOUNDARY POINT NUMBER          321
--------------------------------------------------------------------------------
                    DIFFUSION-PROPAGATION STEP
 CVTRVF_NERD_2 (SCHEME 13 OR 14):  17 ITERATIONS
 GRACJG (BIEF) :        4 ITERATIONS, ABSOLUTE PRECISION:   0.5666073E-04
 POSITIVE DEPTHS OBTAINED IN    17 ITERATIONS
--------------------------------------------------------------------------------
                          K-EPSILON MODEL
 CVTRVF_NERD_2 (SCHEME 13 OR 14):  17 ITERATIONS
 GRACJG (BIEF) :        3 ITERATIONS, RELATIVE PRECISION:   0.5946784E-11
 GRACJG (BIEF) :        2 ITERATIONS, RELATIVE PRECISION:   0.5596131E-10
--------------------------------------------------------------------------------
                       BALANCE OF WATER VOLUME
     VOLUME IN THE DOMAIN :    125096.8     M3
     FLUX BOUNDARY    1:     35.24316     M3/S  ( >0 : ENTERING  <0 : EXITING )
     FLUX BOUNDARY    2:     6.805467     M3/S  ( >0 : ENTERING  <0 : EXITING )
     RELATIVE ERROR IN VOLUME AT T =        1350.     S :   -0.1110769E-14

================================================================================
 ITERATION     1400    TIME: 23 MN  20.0000 S   (     1400.0000 S)
 ILL-POSED PROBLEM, ENTERING FREE VELOCITY
 FOR EXAMPLE AT BOUNDARY POINT NUMBER          321
--------------------------------------------------------------------------------
                    DIFFUSION-PROPAGATION STEP
 CVTRVF_NERD_2 (SCHEME 13 OR 14):  17 ITERATIONS
 GRACJG (BIEF) :        5 ITERATIONS, ABSOLUTE PRECISION:   0.3118760E-04
 POSITIVE DEPTHS OBTAINED IN    17 ITERATIONS
--------------------------------------------------------------------------------
                          K-EPSILON MODEL
 CVTRVF_NERD_2 (SCHEME 13 OR 14):  17 ITERATIONS
 GRACJG (BIEF) :        3 ITERATIONS, RELATIVE PRECISION:   0.5413029E-11
 GRACJG (BIEF) :        2 ITERATIONS, RELATIVE PRECISION:   0.1026467E-09
--------------------------------------------------------------------------------
                       BALANCE OF WATER VOLUME
     VOLUME IN THE DOMAIN :    127198.1     M3
     FLUX BOUNDARY    1:     35.19610     M3/S  ( >0 : ENTERING  <0 : EXITING )
     FLUX BOUNDARY    2:     6.811948     M3/S  ( >0 : ENTERING  <0 : EXITING )
     RELATIVE ERROR IN VOLUME AT T =        1400.     S :   -0.2524476E-14

================================================================================
 ITERATION     1450    TIME: 24 MN  10.0000 S   (     1450.0000 S)
 ILL-POSED PROBLEM, ENTERING FREE VELOCITY
 FOR EXAMPLE AT BOUNDARY POINT NUMBER          321
--------------------------------------------------------------------------------
                    DIFFUSION-PROPAGATION STEP
 CVTRVF_NERD_2 (SCHEME 13 OR 14):  17 ITERATIONS
 GRACJG (BIEF) :        5 ITERATIONS, ABSOLUTE PRECISION:   0.3420989E-04
 POSITIVE DEPTHS OBTAINED IN    17 ITERATIONS
--------------------------------------------------------------------------------
                          K-EPSILON MODEL
 CVTRVF_NERD_2 (SCHEME 13 OR 14):  17 ITERATIONS
 GRACJG (BIEF) :        3 ITERATIONS, RELATIVE PRECISION:   0.5412952E-11
 GRACJG (BIEF) :        2 ITERATIONS, RELATIVE PRECISION:   0.8206723E-10
--------------------------------------------------------------------------------
                       BALANCE OF WATER VOLUME
     VOLUME IN THE DOMAIN :    129297.1     M3
     FLUX BOUNDARY    1:     35.14040     M3/S  ( >0 : ENTERING  <0 : EXITING )
     FLUX BOUNDARY    2:     6.817925     M3/S  ( >0 : ENTERING  <0 : EXITING )
     RELATIVE ERROR IN VOLUME AT T =        1450.     S :   -0.4336058E-14

================================================================================
 ITERATION     1500    TIME: 25 MN   0.0000 S   (     1500.0000 S)
 ILL-POSED PROBLEM, ENTERING FREE VELOCITY
 FOR EXAMPLE AT BOUNDARY POINT NUMBER          321
--------------------------------------------------------------------------------
                    DIFFUSION-PROPAGATION STEP
 CVTRVF_NERD_2 (SCHEME 13 OR 14):  17 ITERATIONS
 GRACJG (BIEF) :        5 ITERATIONS, ABSOLUTE PRECISION:   0.2979803E-04
 POSITIVE DEPTHS OBTAINED IN    17 ITERATIONS
--------------------------------------------------------------------------------
                          K-EPSILON MODEL
 CVTRVF_NERD_2 (SCHEME 13 OR 14):  17 ITERATIONS
 GRACJG (BIEF) :        3 ITERATIONS, RELATIVE PRECISION:   0.8963709E-11
 GRACJG (BIEF) :        2 ITERATIONS, RELATIVE PRECISION:   0.2156641E-09
--------------------------------------------------------------------------------
                       BALANCE OF WATER VOLUME
     VOLUME IN THE DOMAIN :    131392.7     M3
     FLUX BOUNDARY    1:     35.07880     M3/S  ( >0 : ENTERING  <0 : EXITING )
     FLUX BOUNDARY    2:     6.823888     M3/S  ( >0 : ENTERING  <0 : EXITING )
     RELATIVE ERROR IN VOLUME AT T =        1500.     S :   -0.4242673E-14

================================================================================
 ITERATION     1550    TIME: 25 MN  50.0000 S   (     1550.0000 S)
 ILL-POSED PROBLEM, ENTERING FREE VELOCITY
 FOR EXAMPLE AT BOUNDARY POINT NUMBER          321
--------------------------------------------------------------------------------
                    DIFFUSION-PROPAGATION STEP
 CVTRVF_NERD_2 (SCHEME 13 OR 14):  17 ITERATIONS
 GRACJG (BIEF) :        4 ITERATIONS, ABSOLUTE PRECISION:   0.2984949E-04
 POSITIVE DEPTHS OBTAINED IN    17 ITERATIONS
--------------------------------------------------------------------------------
                          K-EPSILON MODEL
 CVTRVF_NERD_2 (SCHEME 13 OR 14):  17 ITERATIONS
 GRACJG (BIEF) :        3 ITERATIONS, RELATIVE PRECISION:   0.4960367E-11
 GRACJG (BIEF) :        2 ITERATIONS, RELATIVE PRECISION:   0.1097372E-09
--------------------------------------------------------------------------------
                       BALANCE OF WATER VOLUME
     VOLUME IN THE DOMAIN :    133486.1     M3
     FLUX BOUNDARY    1:     35.04317     M3/S  ( >0 : ENTERING  <0 : EXITING )
     FLUX BOUNDARY    2:     6.831610     M3/S  ( >0 : ENTERING  <0 : EXITING )
     RELATIVE ERROR IN VOLUME AT T =        1550.     S :    0.3156256E-14

================================================================================
 ITERATION     1600    TIME: 26 MN  40.0000 S   (     1600.0000 S)
 ILL-POSED PROBLEM, ENTERING FREE VELOCITY
 FOR EXAMPLE AT BOUNDARY POINT NUMBER          322
--------------------------------------------------------------------------------
                    DIFFUSION-PROPAGATION STEP
 CVTRVF_NERD_2 (SCHEME 13 OR 14):  17 ITERATIONS
 GRACJG (BIEF) :        3 ITERATIONS, ABSOLUTE PRECISION:   0.7349529E-04
 POSITIVE DEPTHS OBTAINED IN    17 ITERATIONS
--------------------------------------------------------------------------------
                          K-EPSILON MODEL
 CVTRVF_NERD_2 (SCHEME 13 OR 14):  17 ITERATIONS
 GRACJG (BIEF) :        3 ITERATIONS, RELATIVE PRECISION:   0.4941494E-11
 GRACJG (BIEF) :        2 ITERATIONS, RELATIVE PRECISION:   0.1006205E-09
--------------------------------------------------------------------------------
                       BALANCE OF WATER VOLUME
     VOLUME IN THE DOMAIN :    135578.8     M3
     FLUX BOUNDARY    1:     35.02987     M3/S  ( >0 : ENTERING  <0 : EXITING )
     FLUX BOUNDARY    2:     6.838787     M3/S  ( >0 : ENTERING  <0 : EXITING )
     RELATIVE ERROR IN VOLUME AT T =        1600.     S :   -0.5677579E-14

================================================================================
 ITERATION     1650    TIME: 27 MN  30.0000 S   (     1650.0000 S)
 ILL-POSED PROBLEM, ENTERING FREE VELOCITY
 FOR EXAMPLE AT BOUNDARY POINT NUMBER          322
--------------------------------------------------------------------------------
                    DIFFUSION-PROPAGATION STEP
 CVTRVF_NERD_2 (SCHEME 13 OR 14):  17 ITERATIONS
 GRACJG (BIEF) :        3 ITERATIONS, ABSOLUTE PRECISION:   0.6291725E-04
 POSITIVE DEPTHS OBTAINED IN    17 ITERATIONS
--------------------------------------------------------------------------------
                          K-EPSILON MODEL
 CVTRVF_NERD_2 (SCHEME 13 OR 14):  17 ITERATIONS
 GRACJG (BIEF) :        2 ITERATIONS, RELATIVE PRECISION:   0.9748201E-09
 GRACJG (BIEF) :        2 ITERATIONS, RELATIVE PRECISION:   0.1104904E-09
--------------------------------------------------------------------------------
                       BALANCE OF WATER VOLUME
     VOLUME IN THE DOMAIN :    137671.7     M3
     FLUX BOUNDARY    1:     35.02297     M3/S  ( >0 : ENTERING  <0 : EXITING )
     FLUX BOUNDARY    2:     6.849035     M3/S  ( >0 : ENTERING  <0 : EXITING )
     RELATIVE ERROR IN VOLUME AT T =        1650.     S :   -0.5161137E-16

================================================================================
 ITERATION     1700    TIME: 28 MN  20.0000 S   (     1700.0000 S)
 ILL-POSED PROBLEM, ENTERING FREE VELOCITY
 FOR EXAMPLE AT BOUNDARY POINT NUMBER          322
--------------------------------------------------------------------------------
                    DIFFUSION-PROPAGATION STEP
 CVTRVF_NERD_2 (SCHEME 13 OR 14):  17 ITERATIONS
 GRACJG (BIEF) :        3 ITERATIONS, ABSOLUTE PRECISION:   0.3135545E-04
 POSITIVE DEPTHS OBTAINED IN    17 ITERATIONS
--------------------------------------------------------------------------------
                          K-EPSILON MODEL
 CVTRVF_NERD_2 (SCHEME 13 OR 14):  17 ITERATIONS
 GRACJG (BIEF) :        2 ITERATIONS, RELATIVE PRECISION:   0.8856734E-09
 GRACJG (BIEF) :        2 ITERATIONS, RELATIVE PRECISION:   0.9055795E-10
--------------------------------------------------------------------------------
                       BALANCE OF WATER VOLUME
     VOLUME IN THE DOMAIN :    139765.2     M3
     FLUX BOUNDARY    1:     35.02051     M3/S  ( >0 : ENTERING  <0 : EXITING )
     FLUX BOUNDARY    2:     6.857308     M3/S  ( >0 : ENTERING  <0 : EXITING )
     RELATIVE ERROR IN VOLUME AT T =        1700.     S :    0.1231050E-14

================================================================================
 ITERATION     1750    TIME: 29 MN  10.0000 S   (     1750.0000 S)
 ILL-POSED PROBLEM, ENTERING FREE VELOCITY
 FOR EXAMPLE AT BOUNDARY POINT NUMBER          322
--------------------------------------------------------------------------------
                    DIFFUSION-PROPAGATION STEP
 CVTRVF_NERD_2 (SCHEME 13 OR 14):  17 ITERATIONS
 GRACJG (BIEF) :        3 ITERATIONS, ABSOLUTE PRECISION:   0.6765245E-04
 POSITIVE DEPTHS OBTAINED IN    17 ITERATIONS
--------------------------------------------------------------------------------
                          K-EPSILON MODEL
 CVTRVF_NERD_2 (SCHEME 13 OR 14):  17 ITERATIONS
 GRACJG (BIEF) :        2 ITERATIONS, RELATIVE PRECISION:   0.9948885E-09
 GRACJG (BIEF) :        2 ITERATIONS, RELATIVE PRECISION:   0.9662281E-10
--------------------------------------------------------------------------------
                       BALANCE OF WATER VOLUME
     VOLUME IN THE DOMAIN :    141859.4     M3
     FLUX BOUNDARY    1:     35.02470     M3/S  ( >0 : ENTERING  <0 : EXITING )
     FLUX BOUNDARY    2:     6.870857     M3/S  ( >0 : ENTERING  <0 : EXITING )
     RELATIVE ERROR IN VOLUME AT T =        1750.     S :    0.5912364E-15

================================================================================
 ITERATION     1800    TIME: 30 MN   0.0000 S   (     1800.0000 S)
 ILL-POSED PROBLEM, ENTERING FREE VELOCITY
 FOR EXAMPLE AT BOUNDARY POINT NUMBER          322
--------------------------------------------------------------------------------
                    DIFFUSION-PROPAGATION STEP
 CVTRVF_NERD_2 (SCHEME 13 OR 14):  17 ITERATIONS
 GRACJG (BIEF) :        3 ITERATIONS, ABSOLUTE PRECISION:   0.4190509E-04
 POSITIVE DEPTHS OBTAINED IN    17 ITERATIONS
--------------------------------------------------------------------------------
                          K-EPSILON MODEL
 CVTRVF_NERD_2 (SCHEME 13 OR 14):  17 ITERATIONS
 GRACJG (BIEF) :        3 ITERATIONS, RELATIVE PRECISION:   0.3369970E-11
 GRACJG (BIEF) :        2 ITERATIONS, RELATIVE PRECISION:   0.9798986E-10
--------------------------------------------------------------------------------
                       BALANCE OF WATER VOLUME
     VOLUME IN THE DOMAIN :    143954.5     M3
     FLUX BOUNDARY    1:     35.02292     M3/S  ( >0 : ENTERING  <0 : EXITING )
     FLUX BOUNDARY    2:     6.887201     M3/S  ( >0 : ENTERING  <0 : EXITING )
     RELATIVE ERROR IN VOLUME AT T =        1800.     S :    0.2348001E-14

================================================================================
 ITERATION     1850    TIME: 30 MN  50.0000 S   (     1850.0000 S)
 ILL-POSED PROBLEM, ENTERING FREE VELOCITY
 FOR EXAMPLE AT BOUNDARY POINT NUMBER          322
--------------------------------------------------------------------------------
                    DIFFUSION-PROPAGATION STEP
 CVTRVF_NERD_2 (SCHEME 13 OR 14):  17 ITERATIONS
 GRACJG (BIEF) :        3 ITERATIONS, ABSOLUTE PRECISION:   0.2707834E-04
 POSITIVE DEPTHS OBTAINED IN    17 ITERATIONS
--------------------------------------------------------------------------------
                          K-EPSILON MODEL
 CVTRVF_NERD_2 (SCHEME 13 OR 14):  17 ITERATIONS
 GRACJG (BIEF) :        3 ITERATIONS, RELATIVE PRECISION:   0.3929621E-11
 GRACJG (BIEF) :        2 ITERATIONS, RELATIVE PRECISION:   0.1172468E-09
--------------------------------------------------------------------------------
                       BALANCE OF WATER VOLUME
     VOLUME IN THE DOMAIN :    146050.4     M3
     FLUX BOUNDARY    1:     35.01918     M3/S  ( >0 : ENTERING  <0 : EXITING )
     FLUX BOUNDARY    2:     6.907259     M3/S  ( >0 : ENTERING  <0 : EXITING )
     RELATIVE ERROR IN VOLUME AT T =        1850.     S :   -0.3003586E-14

================================================================================
 ITERATION     1900    TIME: 31 MN  40.0000 S   (     1900.0000 S)
 ILL-POSED PROBLEM, ENTERING FREE VELOCITY
 FOR EXAMPLE AT BOUNDARY POINT NUMBER          322
--------------------------------------------------------------------------------
                    DIFFUSION-PROPAGATION STEP
 CVTRVF_NERD_2 (SCHEME 13 OR 14):  17 ITERATIONS
 GRACJG (BIEF) :        3 ITERATIONS, ABSOLUTE PRECISION:   0.3465262E-04
 POSITIVE DEPTHS OBTAINED IN    17 ITERATIONS
--------------------------------------------------------------------------------
                          K-EPSILON MODEL
 CVTRVF_NERD_2 (SCHEME 13 OR 14):  17 ITERATIONS
 GRACJG (BIEF) :        3 ITERATIONS, RELATIVE PRECISION:   0.6784999E-11
 GRACJG (BIEF) :        2 ITERATIONS, RELATIVE PRECISION:   0.1211442E-09
--------------------------------------------------------------------------------
                       BALANCE OF WATER VOLUME
     VOLUME IN THE DOMAIN :    148147.1     M3
     FLUX BOUNDARY    1:     35.01396     M3/S  ( >0 : ENTERING  <0 : EXITING )
     FLUX BOUNDARY    2:     6.926530     M3/S  ( >0 : ENTERING  <0 : EXITING )
     RELATIVE ERROR IN VOLUME AT T =        1900.     S :    0.7245854E-14

================================================================================
 ITERATION     1950    TIME: 32 MN  30.0000 S   (     1950.0000 S)
 ILL-POSED PROBLEM, ENTERING FREE VELOCITY
 FOR EXAMPLE AT BOUNDARY POINT NUMBER          322
--------------------------------------------------------------------------------
                    DIFFUSION-PROPAGATION STEP
 CVTRVF_NERD_2 (SCHEME 13 OR 14):  17 ITERATIONS
 GRACJG (BIEF) :        3 ITERATIONS, ABSOLUTE PRECISION:   0.2671445E-04
 POSITIVE DEPTHS OBTAINED IN    17 ITERATIONS
--------------------------------------------------------------------------------
                          K-EPSILON MODEL
 CVTRVF_NERD_2 (SCHEME 13 OR 14):  17 ITERATIONS
 GRACJG (BIEF) :        3 ITERATIONS, RELATIVE PRECISION:   0.8174570E-11
 GRACJG (BIEF) :        2 ITERATIONS, RELATIVE PRECISION:   0.1444554E-09
--------------------------------------------------------------------------------
                       BALANCE OF WATER VOLUME
     VOLUME IN THE DOMAIN :    150244.8     M3
     FLUX BOUNDARY    1:     35.01038     M3/S  ( >0 : ENTERING  <0 : EXITING )
     FLUX BOUNDARY    2:     6.948930     M3/S  ( >0 : ENTERING  <0 : EXITING )
     RELATIVE ERROR IN VOLUME AT T =        1950.     S :    0.1636314E-15

================================================================================
 ITERATION     2000    TIME: 33 MN  20.0000 S   (     2000.0000 S)
 ILL-POSED PROBLEM, ENTERING FREE VELOCITY
 FOR EXAMPLE AT BOUNDARY POINT NUMBER          322
--------------------------------------------------------------------------------
                    DIFFUSION-PROPAGATION STEP
 CVTRVF_NERD_2 (SCHEME 13 OR 14):  17 ITERATIONS
 GRACJG (BIEF) :        3 ITERATIONS, ABSOLUTE PRECISION:   0.2368414E-04
 POSITIVE DEPTHS OBTAINED IN    17 ITERATIONS
--------------------------------------------------------------------------------
                          K-EPSILON MODEL
 CVTRVF_NERD_2 (SCHEME 13 OR 14):  17 ITERATIONS
 GRACJG (BIEF) :        3 ITERATIONS, RELATIVE PRECISION:   0.9000088E-11
 GRACJG (BIEF) :        2 ITERATIONS, RELATIVE PRECISION:   0.9860264E-10
--------------------------------------------------------------------------------
                       BALANCE OF WATER VOLUME
     VOLUME IN THE DOMAIN :    152343.6     M3
     FLUX BOUNDARY    1:     35.00927     M3/S  ( >0 : ENTERING  <0 : EXITING )
     FLUX BOUNDARY    2:     6.972091     M3/S  ( >0 : ENTERING  <0 : EXITING )
     RELATIVE ERROR IN VOLUME AT T =        2000.     S :    0.1490267E-14

================================================================================
 ITERATION     2050    TIME: 34 MN  10.0000 S   (     2050.0000 S)
 ILL-POSED PROBLEM, ENTERING FREE VELOCITY
 FOR EXAMPLE AT BOUNDARY POINT NUMBER          322
--------------------------------------------------------------------------------
                    DIFFUSION-PROPAGATION STEP
 CVTRVF_NERD_2 (SCHEME 13 OR 14):  17 ITERATIONS
 GRACJG (BIEF) :        3 ITERATIONS, ABSOLUTE PRECISION:   0.3010035E-04
 POSITIVE DEPTHS OBTAINED IN    17 ITERATIONS
--------------------------------------------------------------------------------
                          K-EPSILON MODEL
 CVTRVF_NERD_2 (SCHEME 13 OR 14):  17 ITERATIONS
[...]
     FLUX BOUNDARY    2:    -34.99863     M3/S  ( >0 : ENTERING  <0 : EXITING )
     RELATIVE ERROR IN VOLUME AT T =        9200.     S :    0.2108182E-14

================================================================================
 ITERATION     9250    TIME:  2 H 34 MIN  10.0000 S   (     9250.0000 S)
--------------------------------------------------------------------------------
                    DIFFUSION-PROPAGATION STEP
 CVTRVF_NERD_2 (SCHEME 13 OR 14):  17 ITERATIONS
 GRACJG (BIEF) :        2 ITERATIONS, ABSOLUTE PRECISION:   0.5150214E-04
 POSITIVE DEPTHS OBTAINED IN    17 ITERATIONS
--------------------------------------------------------------------------------
                          K-EPSILON MODEL
 CVTRVF_NERD_2 (SCHEME 13 OR 14):  17 ITERATIONS
 GRACJG (BIEF) :        2 ITERATIONS, RELATIVE PRECISION:   0.9178055E-11
 GRACJG (BIEF) :        2 ITERATIONS, RELATIVE PRECISION:   0.3532943E-09
--------------------------------------------------------------------------------
                       BALANCE OF WATER VOLUME
     VOLUME IN THE DOMAIN :    268894.5     M3
     FLUX BOUNDARY    1:     35.00287     M3/S  ( >0 : ENTERING  <0 : EXITING )
     FLUX BOUNDARY    2:    -34.99897     M3/S  ( >0 : ENTERING  <0 : EXITING )
     RELATIVE ERROR IN VOLUME AT T =        9250.     S :    0.5539809E-14

================================================================================
 ITERATION     9300    TIME:  2 H 35 MIN   0.0000 S   (     9300.0000 S)
--------------------------------------------------------------------------------
                    DIFFUSION-PROPAGATION STEP
 CVTRVF_NERD_2 (SCHEME 13 OR 14):  17 ITERATIONS
 GRACJG (BIEF) :        3 ITERATIONS, ABSOLUTE PRECISION:   0.1649717E-04
 POSITIVE DEPTHS OBTAINED IN    17 ITERATIONS
--------------------------------------------------------------------------------
                          K-EPSILON MODEL
 CVTRVF_NERD_2 (SCHEME 13 OR 14):  17 ITERATIONS
 GRACJG (BIEF) :        2 ITERATIONS, RELATIVE PRECISION:   0.1130171E-10
 GRACJG (BIEF) :        2 ITERATIONS, RELATIVE PRECISION:   0.3533293E-09
--------------------------------------------------------------------------------
                       BALANCE OF WATER VOLUME
     VOLUME IN THE DOMAIN :    268894.7     M3
     FLUX BOUNDARY    1:     35.00287     M3/S  ( >0 : ENTERING  <0 : EXITING )
     FLUX BOUNDARY    2:    -34.99929     M3/S  ( >0 : ENTERING  <0 : EXITING )
     RELATIVE ERROR IN VOLUME AT T =        9300.     S :   -0.6438717E-14

================================================================================
 ITERATION     9350    TIME:  2 H 35 MIN  50.0000 S   (     9350.0000 S)
--------------------------------------------------------------------------------
                    DIFFUSION-PROPAGATION STEP
 CVTRVF_NERD_2 (SCHEME 13 OR 14):  17 ITERATIONS
 GRACJG (BIEF) :        2 ITERATIONS, ABSOLUTE PRECISION:   0.9429322E-04
 POSITIVE DEPTHS OBTAINED IN    17 ITERATIONS
--------------------------------------------------------------------------------
                          K-EPSILON MODEL
 CVTRVF_NERD_2 (SCHEME 13 OR 14):  17 ITERATIONS
 GRACJG (BIEF) :        2 ITERATIONS, RELATIVE PRECISION:   0.1117796E-10
 GRACJG (BIEF) :        2 ITERATIONS, RELATIVE PRECISION:   0.3533178E-09
--------------------------------------------------------------------------------
                       BALANCE OF WATER VOLUME
     VOLUME IN THE DOMAIN :    268894.9     M3
     FLUX BOUNDARY    1:     35.00287     M3/S  ( >0 : ENTERING  <0 : EXITING )
     FLUX BOUNDARY    2:    -34.99957     M3/S  ( >0 : ENTERING  <0 : EXITING )
     RELATIVE ERROR IN VOLUME AT T =        9350.     S :   -0.4578054E-14

================================================================================
 ITERATION     9400    TIME:  2 H 36 MIN  40.0000 S   (     9400.0000 S)
--------------------------------------------------------------------------------
                    DIFFUSION-PROPAGATION STEP
 CVTRVF_NERD_2 (SCHEME 13 OR 14):  17 ITERATIONS
 GRACJG (BIEF) :        2 ITERATIONS, ABSOLUTE PRECISION:   0.9133730E-04
 POSITIVE DEPTHS OBTAINED IN    17 ITERATIONS
--------------------------------------------------------------------------------
                          K-EPSILON MODEL
 CVTRVF_NERD_2 (SCHEME 13 OR 14):  17 ITERATIONS
 GRACJG (BIEF) :        2 ITERATIONS, RELATIVE PRECISION:   0.1088364E-10
 GRACJG (BIEF) :        2 ITERATIONS, RELATIVE PRECISION:   0.3532706E-09
--------------------------------------------------------------------------------
                       BALANCE OF WATER VOLUME
     VOLUME IN THE DOMAIN :    268895.0     M3
     FLUX BOUNDARY    1:     35.00287     M3/S  ( >0 : ENTERING  <0 : EXITING )
     FLUX BOUNDARY    2:    -34.99983     M3/S  ( >0 : ENTERING  <0 : EXITING )
     RELATIVE ERROR IN VOLUME AT T =        9400.     S :    0.4017851E-14

================================================================================
 ITERATION     9450    TIME:  2 H 37 MIN  30.0000 S   (     9450.0000 S)
--------------------------------------------------------------------------------
                    DIFFUSION-PROPAGATION STEP
 CVTRVF_NERD_2 (SCHEME 13 OR 14):  17 ITERATIONS
 GRACJG (BIEF) :        3 ITERATIONS, ABSOLUTE PRECISION:   0.2905233E-04
 POSITIVE DEPTHS OBTAINED IN    17 ITERATIONS
--------------------------------------------------------------------------------
                          K-EPSILON MODEL
 CVTRVF_NERD_2 (SCHEME 13 OR 14):  17 ITERATIONS
 GRACJG (BIEF) :        2 ITERATIONS, RELATIVE PRECISION:   0.1402613E-10
 GRACJG (BIEF) :        2 ITERATIONS, RELATIVE PRECISION:   0.3532930E-09
--------------------------------------------------------------------------------
                       BALANCE OF WATER VOLUME
     VOLUME IN THE DOMAIN :    268895.2     M3
     FLUX BOUNDARY    1:     35.00287     M3/S  ( >0 : ENTERING  <0 : EXITING )
     FLUX BOUNDARY    2:    -35.00006     M3/S  ( >0 : ENTERING  <0 : EXITING )
     RELATIVE ERROR IN VOLUME AT T =        9450.     S :    0.3032452E-14

================================================================================
 ITERATION     9500    TIME:  2 H 38 MIN  20.0000 S   (     9500.0000 S)
--------------------------------------------------------------------------------
                    DIFFUSION-PROPAGATION STEP
 CVTRVF_NERD_2 (SCHEME 13 OR 14):  17 ITERATIONS
 GRACJG (BIEF) :        2 ITERATIONS, ABSOLUTE PRECISION:   0.4182850E-04
 POSITIVE DEPTHS OBTAINED IN    17 ITERATIONS
--------------------------------------------------------------------------------
                          K-EPSILON MODEL
 CVTRVF_NERD_2 (SCHEME 13 OR 14):  17 ITERATIONS
 GRACJG (BIEF) :        2 ITERATIONS, RELATIVE PRECISION:   0.1378377E-10
 GRACJG (BIEF) :        2 ITERATIONS, RELATIVE PRECISION:   0.3533274E-09
--------------------------------------------------------------------------------
                       BALANCE OF WATER VOLUME
     VOLUME IN THE DOMAIN :    268895.3     M3
     FLUX BOUNDARY    1:     35.00288     M3/S  ( >0 : ENTERING  <0 : EXITING )
     FLUX BOUNDARY    2:    -35.00028     M3/S  ( >0 : ENTERING  <0 : EXITING )
     RELATIVE ERROR IN VOLUME AT T =        9500.     S :   -0.1812167E-14

================================================================================
 ITERATION     9550    TIME:  2 H 39 MIN  10.0000 S   (     9550.0000 S)
--------------------------------------------------------------------------------
                    DIFFUSION-PROPAGATION STEP
 CVTRVF_NERD_2 (SCHEME 13 OR 14):  17 ITERATIONS
 GRACJG (BIEF) :        3 ITERATIONS, ABSOLUTE PRECISION:   0.2571880E-04
 POSITIVE DEPTHS OBTAINED IN    17 ITERATIONS
--------------------------------------------------------------------------------
                          K-EPSILON MODEL
 CVTRVF_NERD_2 (SCHEME 13 OR 14):  17 ITERATIONS
 GRACJG (BIEF) :        2 ITERATIONS, RELATIVE PRECISION:   0.1050281E-10
 GRACJG (BIEF) :        2 ITERATIONS, RELATIVE PRECISION:   0.3533056E-09
--------------------------------------------------------------------------------
                       BALANCE OF WATER VOLUME
     VOLUME IN THE DOMAIN :    268895.4     M3
     FLUX BOUNDARY    1:     35.00288     M3/S  ( >0 : ENTERING  <0 : EXITING )
     FLUX BOUNDARY    2:    -35.00047     M3/S  ( >0 : ENTERING  <0 : EXITING )
     RELATIVE ERROR IN VOLUME AT T =        9550.     S :    0.3167690E-14

================================================================================
 ITERATION     9600    TIME:  2 H 40 MIN   0.0000 S   (     9600.0000 S)
--------------------------------------------------------------------------------
                    DIFFUSION-PROPAGATION STEP
 CVTRVF_NERD_2 (SCHEME 13 OR 14):  17 ITERATIONS
 GRACJG (BIEF) :        2 ITERATIONS, ABSOLUTE PRECISION:   0.5149607E-04
 POSITIVE DEPTHS OBTAINED IN    17 ITERATIONS
--------------------------------------------------------------------------------
                          K-EPSILON MODEL
 CVTRVF_NERD_2 (SCHEME 13 OR 14):  17 ITERATIONS
 GRACJG (BIEF) :        2 ITERATIONS, RELATIVE PRECISION:   0.6490672E-11
 GRACJG (BIEF) :        2 ITERATIONS, RELATIVE PRECISION:   0.3533029E-09
--------------------------------------------------------------------------------
                       BALANCE OF WATER VOLUME
     VOLUME IN THE DOMAIN :    268895.6     M3
     FLUX BOUNDARY    1:     35.00288     M3/S  ( >0 : ENTERING  <0 : EXITING )
     FLUX BOUNDARY    2:    -35.00065     M3/S  ( >0 : ENTERING  <0 : EXITING )
     RELATIVE ERROR IN VOLUME AT T =        9600.     S :    0.3060088E-14

================================================================================
 ITERATION     9650    TIME:  2 H 40 MIN  50.0000 S   (     9650.0000 S)
--------------------------------------------------------------------------------
                    DIFFUSION-PROPAGATION STEP
 CVTRVF_NERD_2 (SCHEME 13 OR 14):  17 ITERATIONS
 GRACJG (BIEF) :        3 ITERATIONS, ABSOLUTE PRECISION:   0.1650795E-04
 POSITIVE DEPTHS OBTAINED IN    17 ITERATIONS
--------------------------------------------------------------------------------
                          K-EPSILON MODEL
 CVTRVF_NERD_2 (SCHEME 13 OR 14):  17 ITERATIONS
 GRACJG (BIEF) :        2 ITERATIONS, RELATIVE PRECISION:   0.8579134E-11
 GRACJG (BIEF) :        2 ITERATIONS, RELATIVE PRECISION:   0.3533377E-09
--------------------------------------------------------------------------------
                       BALANCE OF WATER VOLUME
     VOLUME IN THE DOMAIN :    268895.7     M3
     FLUX BOUNDARY    1:     35.00288     M3/S  ( >0 : ENTERING  <0 : EXITING )
     FLUX BOUNDARY    2:    -35.00081     M3/S  ( >0 : ENTERING  <0 : EXITING )
     RELATIVE ERROR IN VOLUME AT T =        9650.     S :    0.3538607E-14

================================================================================
 ITERATION     9700    TIME:  2 H 41 MIN  40.0000 S   (     9700.0000 S)
--------------------------------------------------------------------------------
                    DIFFUSION-PROPAGATION STEP
 CVTRVF_NERD_2 (SCHEME 13 OR 14):  17 ITERATIONS
 GRACJG (BIEF) :        2 ITERATIONS, ABSOLUTE PRECISION:   0.9431892E-04
 POSITIVE DEPTHS OBTAINED IN    17 ITERATIONS
--------------------------------------------------------------------------------
                          K-EPSILON MODEL
 CVTRVF_NERD_2 (SCHEME 13 OR 14):  17 ITERATIONS
 GRACJG (BIEF) :        2 ITERATIONS, RELATIVE PRECISION:   0.8788765E-11
 GRACJG (BIEF) :        2 ITERATIONS, RELATIVE PRECISION:   0.3533456E-09
--------------------------------------------------------------------------------
                       BALANCE OF WATER VOLUME
     VOLUME IN THE DOMAIN :    268895.8     M3
     FLUX BOUNDARY    1:     35.00288     M3/S  ( >0 : ENTERING  <0 : EXITING )
     FLUX BOUNDARY    2:    -35.00095     M3/S  ( >0 : ENTERING  <0 : EXITING )
     RELATIVE ERROR IN VOLUME AT T =        9700.     S :   -0.5720263E-14

================================================================================
 ITERATION     9750    TIME:  2 H 42 MIN  30.0000 S   (     9750.0000 S)
--------------------------------------------------------------------------------
                    DIFFUSION-PROPAGATION STEP
 CVTRVF_NERD_2 (SCHEME 13 OR 14):  17 ITERATIONS
 GRACJG (BIEF) :        2 ITERATIONS, ABSOLUTE PRECISION:   0.9139183E-04
 POSITIVE DEPTHS OBTAINED IN    17 ITERATIONS
--------------------------------------------------------------------------------
                          K-EPSILON MODEL
 CVTRVF_NERD_2 (SCHEME 13 OR 14):  17 ITERATIONS
 GRACJG (BIEF) :        2 ITERATIONS, RELATIVE PRECISION:   0.8767108E-11
 GRACJG (BIEF) :        2 ITERATIONS, RELATIVE PRECISION:   0.3533109E-09
--------------------------------------------------------------------------------
                       BALANCE OF WATER VOLUME
     VOLUME IN THE DOMAIN :    268895.9     M3
     FLUX BOUNDARY    1:     35.00288     M3/S  ( >0 : ENTERING  <0 : EXITING )
     FLUX BOUNDARY    2:    -35.00108     M3/S  ( >0 : ENTERING  <0 : EXITING )
     RELATIVE ERROR IN VOLUME AT T =        9750.     S :    0.3199632E-14

================================================================================
 ITERATION     9800    TIME:  2 H 43 MIN  20.0000 S   (     9800.0000 S)
--------------------------------------------------------------------------------
                    DIFFUSION-PROPAGATION STEP
 CVTRVF_NERD_2 (SCHEME 13 OR 14):  17 ITERATIONS
 GRACJG (BIEF) :        3 ITERATIONS, ABSOLUTE PRECISION:   0.2906266E-04
 POSITIVE DEPTHS OBTAINED IN    17 ITERATIONS
--------------------------------------------------------------------------------
                          K-EPSILON MODEL
 CVTRVF_NERD_2 (SCHEME 13 OR 14):  17 ITERATIONS
 GRACJG (BIEF) :        2 ITERATIONS, RELATIVE PRECISION:   0.1241098E-10
 GRACJG (BIEF) :        2 ITERATIONS, RELATIVE PRECISION:   0.3533120E-09
--------------------------------------------------------------------------------
                       BALANCE OF WATER VOLUME
     VOLUME IN THE DOMAIN :    268896.0     M3
     FLUX BOUNDARY    1:     35.00288     M3/S  ( >0 : ENTERING  <0 : EXITING )
     FLUX BOUNDARY    2:    -35.00120     M3/S  ( >0 : ENTERING  <0 : EXITING )
     RELATIVE ERROR IN VOLUME AT T =        9800.     S :    0.6858202E-14

================================================================================
 ITERATION     9850    TIME:  2 H 44 MIN  10.0000 S   (     9850.0000 S)
--------------------------------------------------------------------------------
                    DIFFUSION-PROPAGATION STEP
 CVTRVF_NERD_2 (SCHEME 13 OR 14):  17 ITERATIONS
 GRACJG (BIEF) :        2 ITERATIONS, ABSOLUTE PRECISION:   0.4185446E-04
 POSITIVE DEPTHS OBTAINED IN    17 ITERATIONS
--------------------------------------------------------------------------------
                          K-EPSILON MODEL
 CVTRVF_NERD_2 (SCHEME 13 OR 14):  17 ITERATIONS
 GRACJG (BIEF) :        2 ITERATIONS, RELATIVE PRECISION:   0.1270521E-10
 GRACJG (BIEF) :        2 ITERATIONS, RELATIVE PRECISION:   0.3534473E-09
--------------------------------------------------------------------------------
                       BALANCE OF WATER VOLUME
     VOLUME IN THE DOMAIN :    268896.0     M3
     FLUX BOUNDARY    1:     35.00288     M3/S  ( >0 : ENTERING  <0 : EXITING )
     FLUX BOUNDARY    2:    -35.00131     M3/S  ( >0 : ENTERING  <0 : EXITING )
     RELATIVE ERROR IN VOLUME AT T =        9850.     S :    0.9823180E-14

================================================================================
 ITERATION     9900    TIME:  2 H 45 MIN   0.0000 S   (     9900.0000 S)
--------------------------------------------------------------------------------
                    DIFFUSION-PROPAGATION STEP
 CVTRVF_NERD_2 (SCHEME 13 OR 14):  17 ITERATIONS
 GRACJG (BIEF) :        3 ITERATIONS, ABSOLUTE PRECISION:   0.2573014E-04
 POSITIVE DEPTHS OBTAINED IN    17 ITERATIONS
--------------------------------------------------------------------------------
                          K-EPSILON MODEL
 CVTRVF_NERD_2 (SCHEME 13 OR 14):  17 ITERATIONS
 GRACJG (BIEF) :        2 ITERATIONS, RELATIVE PRECISION:   0.8860120E-11
 GRACJG (BIEF) :        2 ITERATIONS, RELATIVE PRECISION:   0.3532832E-09
--------------------------------------------------------------------------------
                       BALANCE OF WATER VOLUME
     VOLUME IN THE DOMAIN :    268896.1     M3
     FLUX BOUNDARY    1:     35.00288     M3/S  ( >0 : ENTERING  <0 : EXITING )
     FLUX BOUNDARY    2:    -35.00141     M3/S  ( >0 : ENTERING  <0 : EXITING )
     RELATIVE ERROR IN VOLUME AT T =        9900.     S :   -0.1342229E-14

================================================================================
 ITERATION     9950    TIME:  2 H 45 MIN  50.0000 S   (     9950.0000 S)
--------------------------------------------------------------------------------
                    DIFFUSION-PROPAGATION STEP
 CVTRVF_NERD_2 (SCHEME 13 OR 14):  17 ITERATIONS
 GRACJG (BIEF) :        2 ITERATIONS, ABSOLUTE PRECISION:   0.5149592E-04
 POSITIVE DEPTHS OBTAINED IN    17 ITERATIONS
--------------------------------------------------------------------------------
                          K-EPSILON MODEL
 CVTRVF_NERD_2 (SCHEME 13 OR 14):  17 ITERATIONS
 GRACJG (BIEF) :        2 ITERATIONS, RELATIVE PRECISION:   0.4813114E-11
 GRACJG (BIEF) :        2 ITERATIONS, RELATIVE PRECISION:   0.3532875E-09
--------------------------------------------------------------------------------
                       BALANCE OF WATER VOLUME
     VOLUME IN THE DOMAIN :    268896.2     M3
     FLUX BOUNDARY    1:     35.00288     M3/S  ( >0 : ENTERING  <0 : EXITING )
     FLUX BOUNDARY    2:    -35.00150     M3/S  ( >0 : ENTERING  <0 : EXITING )
     RELATIVE ERROR IN VOLUME AT T =        9950.     S :    0.2808045E-14

================================================================================
 ITERATION    10000    TIME:  2 H 46 MIN  40.0000 S   (    10000.0000 S)
--------------------------------------------------------------------------------
                    DIFFUSION-PROPAGATION STEP
 CVTRVF_NERD_2 (SCHEME 13 OR 14):  17 ITERATIONS
 GRACJG (BIEF) :        3 ITERATIONS, ABSOLUTE PRECISION:   0.1651965E-04
 POSITIVE DEPTHS OBTAINED IN    17 ITERATIONS
--------------------------------------------------------------------------------
                          K-EPSILON MODEL
 CVTRVF_NERD_2 (SCHEME 13 OR 14):  17 ITERATIONS
 GRACJG (BIEF) :        2 ITERATIONS, RELATIVE PRECISION:   0.7321474E-11
 GRACJG (BIEF) :        2 ITERATIONS, RELATIVE PRECISION:   0.3533672E-09
--------------------------------------------------------------------------------
                       BALANCE OF WATER VOLUME
     VOLUME IN THE DOMAIN :    268896.2     M3
     FLUX BOUNDARY    1:     35.00288     M3/S  ( >0 : ENTERING  <0 : EXITING )
     FLUX BOUNDARY    2:    -35.00158     M3/S  ( >0 : ENTERING  <0 : EXITING )
     RELATIVE ERROR IN VOLUME AT T =       0.1000E+05 S :    0.3932746E-15
--------------------------------------------------------------------------------
                   FINAL BALANCE OF WATER VOLUME

     RELATIVE ERROR CUMULATED ON VOLUME:    0.8658754E-15

     INITIAL VOLUME              :     0.000000     M3
     FINAL VOLUME                :     268896.2     M3
     VOLUME THAT ENTERED THE DOMAIN:     268896.2     M3  ( IF <0 EXIT )
     TOTAL VOLUME LOST             :    0.2328306E-09 M3

 END OF TIME LOOP

 EXITING MPI

                     *************************************
                     *    END OF MEMORY ORGANIZATION:    *
                     *************************************

 CORRECT END OF RUN

 ELAPSE TIME :
                              2  MINUTES
                             43  SECONDS
Note: The following floating-point exceptions are signalling: IEEE_UNDERFLOW_FLAG IEEE_DENORMAL
STOP 0
